1

   Abaqus 3DEXPERIENCE R2016x                                  Date 20-Jun-2016   Time 14:51:57
   For use by ABB AB CORPORATE RESEARCH _ABB AB_ under license from Dassault Systemes or its subsidiary.



                         The Abaqus Software is a product of:

                           Dassault Systemes SIMULIA Corp.
                           1301 Atwood Avenue, Suite 101W
                              Johnston, RI 02919, USA
 


                   The Abaqus Software is available only under license
                   from Dassault Systemes or its subsidiary and may be
                   used or reproduced only in accordance with the terms
                   of such license.
 
                          On machine SEVST-L-CRC7556 
                          you are authorized to run
                          Abaqus/Standard until 31-Dec-2016

                          Your site id is: 200000000022039 


 
                    For assistance or any other information you may
                    obtain contact information for your local office
                    from the world wide web at:

                      http://www.3ds.com/products/simulia/locations/

 
                * * * * * * * * * * * * * * * * * * * * * * * * * * * * * * 
                *                                                         * 
                *                   *****************                     * 
                *                   *  N O T I C E  *                     * 
                *                   *****************                     * 
                *                                                         * 
                *                                                         * 
                *                    Abaqus 3DEXPERIENCE R2016x                                   * 
                *                                                         * 
                *          BUILD ID: 2015_09_24-22.31.09 126547           * 
                *                                                         * 
                *                                                         * 
                *  Please make sure you are using release 3DEXPERIENCE R2016x manuals    * 
                *  plus the notes accompanying this release.              * 
                *                                                         * 
                *                                                         * 
                *                                                         * 
                *                                                         * 
                * * * * * * * * * * * * * * * * * * * * * * * * * * * * * * 


 



     PROCESSING PART, INSTANCE, AND ASSEMBLY INFORMATION
   *******************************************************


     END PROCESSING PART, INSTANCE, AND ASSEMBLY INFORMATION
   ***********************************************************


 ***NOTE: DUE TO EXCESSIVE REPORTING, THE ECHO OF THE *SURFACE OPTION IS BEING 
          SUPPRESSED.



     OPTIONS BEING PROCESSED
   ***************************


  *Heading
  *Node
  *Element, type=S4R
  *Element, type=B31
  *Element, type=S3

 ***NOTE: ELEMENT TYPES S3 AND S3R ARE IDENTICAL. ELEMENT TYPE S3 WILL BE 
          REFERRED TO AS S3R FROM HERE ON
  *Element, type=S4R
  *Element, type=S3

 ***NOTE: ELEMENT TYPES S3 AND S3R ARE IDENTICAL. ELEMENT TYPE S3 WILL BE 
          REFERRED TO AS S3R FROM HERE ON
  *Element, type=S4R
  *Element, type=S3

 ***NOTE: ELEMENT TYPES S3 AND S3R ARE IDENTICAL. ELEMENT TYPE S3 WILL BE 
          REFERRED TO AS S3R FROM HERE ON
  *Element, type=S4R
  *Element, type=S3

 ***NOTE: ELEMENT TYPES S3 AND S3R ARE IDENTICAL. ELEMENT TYPE S3 WILL BE 
          REFERRED TO AS S3R FROM HERE ON
  *Element, type=S4R
  *Element, type=S3

 ***NOTE: ELEMENT TYPES S3 AND S3R ARE IDENTICAL. ELEMENT TYPE S3 WILL BE 
          REFERRED TO AS S3R FROM HERE ON
  *Element, type=S4R
  *Element, type=S3

 ***NOTE: ELEMENT TYPES S3 AND S3R ARE IDENTICAL. ELEMENT TYPE S3 WILL BE 
          REFERRED TO AS S3R FROM HERE ON
  *Element, type=S4R
  *Element, type=S3

 ***NOTE: ELEMENT TYPES S3 AND S3R ARE IDENTICAL. ELEMENT TYPE S3 WILL BE 
          REFERRED TO AS S3R FROM HERE ON
  *Element, type=S4R
  *Element, type=S3

 ***NOTE: ELEMENT TYPES S3 AND S3R ARE IDENTICAL. ELEMENT TYPE S3 WILL BE 
          REFERRED TO AS S3R FROM HERE ON
  *Element, type=S4R
  *Element, type=S3

 ***NOTE: ELEMENT TYPES S3 AND S3R ARE IDENTICAL. ELEMENT TYPE S3 WILL BE 
          REFERRED TO AS S3R FROM HERE ON
  *Element, type=S4R
  *Element, type=S3

 ***NOTE: ELEMENT TYPES S3 AND S3R ARE IDENTICAL. ELEMENT TYPE S3 WILL BE 
          REFERRED TO AS S3R FROM HERE ON
  *Element, type=S4R
  *Element, type=S3

 ***NOTE: ELEMENT TYPES S3 AND S3R ARE IDENTICAL. ELEMENT TYPE S3 WILL BE 
          REFERRED TO AS S3R FROM HERE ON
  *Element, type=S4R
  *Element, type=S3

 ***NOTE: ELEMENT TYPES S3 AND S3R ARE IDENTICAL. ELEMENT TYPE S3 WILL BE 
          REFERRED TO AS S3R FROM HERE ON
  *Element, type=S4R
  *Element, type=S3

 ***NOTE: ELEMENT TYPES S3 AND S3R ARE IDENTICAL. ELEMENT TYPE S3 WILL BE 
          REFERRED TO AS S3R FROM HERE ON
  *Element, type=S4R
  *Element, type=S3

 ***NOTE: ELEMENT TYPES S3 AND S3R ARE IDENTICAL. ELEMENT TYPE S3 WILL BE 
          REFERRED TO AS S3R FROM HERE ON
  *Element, type=S4R
  *Element, type=S3

 ***NOTE: ELEMENT TYPES S3 AND S3R ARE IDENTICAL. ELEMENT TYPE S3 WILL BE 
          REFERRED TO AS S3R FROM HERE ON
  *Element, type=S4R
  *Element, type=S3

 ***NOTE: ELEMENT TYPES S3 AND S3R ARE IDENTICAL. ELEMENT TYPE S3 WILL BE 
          REFERRED TO AS S3R FROM HERE ON
  *Element, type=S4R
  *Element, type=S3

 ***NOTE: ELEMENT TYPES S3 AND S3R ARE IDENTICAL. ELEMENT TYPE S3 WILL BE 
          REFERRED TO AS S3R FROM HERE ON
  *Element, type=S4R
  *Element, type=S3

 ***NOTE: ELEMENT TYPES S3 AND S3R ARE IDENTICAL. ELEMENT TYPE S3 WILL BE 
          REFERRED TO AS S3R FROM HERE ON
  *Element, type=S4R
  *Element, type=S3

 ***NOTE: ELEMENT TYPES S3 AND S3R ARE IDENTICAL. ELEMENT TYPE S3 WILL BE 
          REFERRED TO AS S3R FROM HERE ON
  *Element, type=S4R
  *Element, type=S3

 ***NOTE: ELEMENT TYPES S3 AND S3R ARE IDENTICAL. ELEMENT TYPE S3 WILL BE 
          REFERRED TO AS S3R FROM HERE ON
  *Element, type=S4R
  *Element, type=S3

 ***NOTE: ELEMENT TYPES S3 AND S3R ARE IDENTICAL. ELEMENT TYPE S3 WILL BE 
          REFERRED TO AS S3R FROM HERE ON
  *Element, type=S4R
  *Element, type=S3

 ***NOTE: ELEMENT TYPES S3 AND S3R ARE IDENTICAL. ELEMENT TYPE S3 WILL BE 
          REFERRED TO AS S3R FROM HERE ON
  *Element, type=S4R
  *Element, type=S3

 ***NOTE: ELEMENT TYPES S3 AND S3R ARE IDENTICAL. ELEMENT TYPE S3 WILL BE 
          REFERRED TO AS S3R FROM HERE ON
  *Element, type=S4R
  *Element, type=S3

 ***NOTE: ELEMENT TYPES S3 AND S3R ARE IDENTICAL. ELEMENT TYPE S3 WILL BE 
          REFERRED TO AS S3R FROM HERE ON
  *Element, type=S4R
  *Element, type=S3

 ***NOTE: ELEMENT TYPES S3 AND S3R ARE IDENTICAL. ELEMENT TYPE S3 WILL BE 
          REFERRED TO AS S3R FROM HERE ON
  *Element, type=S4R
  *Element, type=S3

 ***NOTE: ELEMENT TYPES S3 AND S3R ARE IDENTICAL. ELEMENT TYPE S3 WILL BE 
          REFERRED TO AS S3R FROM HERE ON
  *Element, type=S4R
  *Element, type=S3

 ***NOTE: ELEMENT TYPES S3 AND S3R ARE IDENTICAL. ELEMENT TYPE S3 WILL BE 
          REFERRED TO AS S3R FROM HERE ON
  *Element, type=S4R
  *Element, type=S3

 ***NOTE: ELEMENT TYPES S3 AND S3R ARE IDENTICAL. ELEMENT TYPE S3 WILL BE 
          REFERRED TO AS S3R FROM HERE ON
  *Element, type=S4R
  *Element, type=S3

 ***NOTE: ELEMENT TYPES S3 AND S3R ARE IDENTICAL. ELEMENT TYPE S3 WILL BE 
          REFERRED TO AS S3R FROM HERE ON
  *Element, type=S4R
  *Element, type=S3

 ***NOTE: ELEMENT TYPES S3 AND S3R ARE IDENTICAL. ELEMENT TYPE S3 WILL BE 
          REFERRED TO AS S3R FROM HERE ON
  *Element, type=S4R
  *Element, type=S3

 ***NOTE: ELEMENT TYPES S3 AND S3R ARE IDENTICAL. ELEMENT TYPE S3 WILL BE 
          REFERRED TO AS S3R FROM HERE ON
  *Element, type=S4R
  *Element, type=S3

 ***NOTE: ELEMENT TYPES S3 AND S3R ARE IDENTICAL. ELEMENT TYPE S3 WILL BE 
          REFERRED TO AS S3R FROM HERE ON
  *Element, type=S4R
  *Element, type=S3

 ***NOTE: ELEMENT TYPES S3 AND S3R ARE IDENTICAL. ELEMENT TYPE S3 WILL BE 
          REFERRED TO AS S3R FROM HERE ON
  *Element, type=S4R
  *Element, type=S3

 ***NOTE: ELEMENT TYPES S3 AND S3R ARE IDENTICAL. ELEMENT TYPE S3 WILL BE 
          REFERRED TO AS S3R FROM HERE ON
  *Element, type=S4R
  *Element, type=S3

 ***NOTE: ELEMENT TYPES S3 AND S3R ARE IDENTICAL. ELEMENT TYPE S3 WILL BE 
          REFERRED TO AS S3R FROM HERE ON
  *Element, type=S4R
  *Element, type=S3

 ***NOTE: ELEMENT TYPES S3 AND S3R ARE IDENTICAL. ELEMENT TYPE S3 WILL BE 
          REFERRED TO AS S3R FROM HERE ON
  *Element, type=S4R
  *Element, type=S3

 ***NOTE: ELEMENT TYPES S3 AND S3R ARE IDENTICAL. ELEMENT TYPE S3 WILL BE 
          REFERRED TO AS S3R FROM HERE ON
  *Element, type=S4R
  *Element, type=S3

 ***NOTE: ELEMENT TYPES S3 AND S3R ARE IDENTICAL. ELEMENT TYPE S3 WILL BE 
          REFERRED TO AS S3R FROM HERE ON
  *Element, type=S4R
  *Element, type=S3

 ***NOTE: ELEMENT TYPES S3 AND S3R ARE IDENTICAL. ELEMENT TYPE S3 WILL BE 
          REFERRED TO AS S3R FROM HERE ON
  *Element, type=S4R
  *Nset, nset=ASSEMBLY_BOTTOM_FRAME-1_COUPLING_1_P
  *Nset, nset=ASSEMBLY_BOTTOM_FRAME-1_COUPLING_1_R
  *Nset, nset=ASSEMBLY_BOTTOM_FRAME-1_COUPLING_2_P
  *Nset, nset=ASSEMBLY_BOTTOM_FRAME-1_COUPLING_2_R
  *Nset, nset=ASSEMBLY_BOTTOM_FRAME-1_COUPLING_3_R
  *Nset, nset=ASSEMBLY_BOTTOM_FRAME-1_COUPLING_4_P
  *Nset, nset=ASSEMBLY_BOTTOM_FRAME-1_COUPLING_4_R
  *Nset, nset=ASSEMBLY_BOTTOM_FRAME-1_COUPLING_5_P
  *Nset, nset=ASSEMBLY_BOTTOM_FRAME-1_COUPLING_5_R
  *Nset, nset=ASSEMBLY_BOTTOM_FRAME-1_COUPLING_6_P
  *Nset, nset=ASSEMBLY_BOTTOM_FRAME-1_COUPLING_6_R
  *Nset, nset=ASSEMBLY_BOTTOM_FRAME-1_COUPLING_7_P
  *Nset, nset=ASSEMBLY_BOTTOM_FRAME-1_COUPLING_7_R
  *Nset, nset=ASSEMBLY_BOTTOM_FRAME-1_COUPLING_8_R
  *Nset, nset=ASSEMBLY_BOTTOM_FRAME-1_MAIN_BC
  *Nset, nset=ASSEMBLY_BOTTOM_FRAME-1_SECTION_10MM_SHELL
  *Nset, nset=ASSEMBLY_BOTTOM_FRAME-1_SECTION_12MM_SHELL
  *Nset, nset=ASSEMBLY_BOTTOM_FRAME-1_SECTION_15MM_SHELL
  *Nset, nset=ASSEMBLY_BOTTOM_FRAME-1_SECTION_225_INSULATOR
  *Nset, nset=ASSEMBLY_BOTTOM_FRAME-1_SECTION_2MM_SHELL
  *Nset, nset=ASSEMBLY_BOTTOM_FRAME-1_SECTION_34MM_SHELL
  *Nset, nset=ASSEMBLY_BOTTOM_FRAME-1_SECTION_46MM_SHELL
  *Nset, nset=ASSEMBLY_BOTTOM_FRAME-1_SECTION_BC_MEASURING_BEAM
  *Nset, nset=ASSEMBLY_BOTTOM_FRAME-1_TIE_1_M
  *Nset, nset=ASSEMBLY_BOTTOM_FRAME-1_TIE_1_S
  *Nset, nset=ASSEMBLY_BOTTOM_FRAME-1_TIE_2_M
  *Nset, nset=ASSEMBLY_BOTTOM_FRAME-1_TIE_2_S
  *Nset, nset=ASSEMBLY_BOTTOM_FRAME-1_TIE_3_M
  *Elset, elset=ASSEMBLY_BOTTOM_FRAME-1_COUPLING_2_R
  *Elset, elset=ASSEMBLY_BOTTOM_FRAME-1_COUPLING_3_R
  *Elset, elset=ASSEMBLY_BOTTOM_FRAME-1_COUPLING_4_R
  *Elset, elset=ASSEMBLY_BOTTOM_FRAME-1_COUPLING_5_R
  *Elset, elset=ASSEMBLY_BOTTOM_FRAME-1_COUPLING_6_R
  *Elset, elset=ASSEMBLY_BOTTOM_FRAME-1_COUPLING_7_R
  *Elset, elset=ASSEMBLY_BOTTOM_FRAME-1_COUPLING_8_R
  *Elset, elset=ASSEMBLY_BOTTOM_FRAME-1_SECTION_10MM_SHELL
  *Elset, elset=ASSEMBLY_BOTTOM_FRAME-1_SECTION_12MM_SHELL
  *Elset, elset=ASSEMBLY_BOTTOM_FRAME-1_SECTION_15MM_SHELL
  *Elset, elset=ASSEMBLY_BOTTOM_FRAME-1_SECTION_225_INSULATOR
  *Elset, elset=ASSEMBLY_BOTTOM_FRAME-1_SECTION_2MM_SHELL
  *Elset, elset=ASSEMBLY_BOTTOM_FRAME-1_SECTION_34MM_SHELL
  *Elset, elset=ASSEMBLY_BOTTOM_FRAME-1_SECTION_46MM_SHELL
  *Elset, elset=ASSEMBLY_BOTTOM_FRAME-1_SECTION_BC_MEASURING_BEAM
  *Elset, elset=ASSEMBLY_BOTTOM_FRAME-1_TIE_1_M
  *Elset, elset=ASSEMBLY_BOTTOM_FRAME-1_TIE_1_S
  *Elset, elset=ASSEMBLY_BOTTOM_FRAME-1_TIE_2_M
  *Elset, elset=ASSEMBLY_BOTTOM_FRAME-1_TIE_2_S
  *Elset, elset=ASSEMBLY_BOTTOM_FRAME-1_TIE_3_M
  *Node
  *Element, type=S4R
  *Element, type=B31
  *Element, type=S4R
  *Element, type=S3

 ***NOTE: ELEMENT TYPES S3 AND S3R ARE IDENTICAL. ELEMENT TYPE S3 WILL BE 
          REFERRED TO AS S3R FROM HERE ON
  *Element, type=S4R
  *Element, type=S3

 ***NOTE: ELEMENT TYPES S3 AND S3R ARE IDENTICAL. ELEMENT TYPE S3 WILL BE 
          REFERRED TO AS S3R FROM HERE ON
  *Element, type=S4R
  *Element, type=S3

 ***NOTE: ELEMENT TYPES S3 AND S3R ARE IDENTICAL. ELEMENT TYPE S3 WILL BE 
          REFERRED TO AS S3R FROM HERE ON
  *Element, type=S4R
  *Element, type=S3

 ***NOTE: ELEMENT TYPES S3 AND S3R ARE IDENTICAL. ELEMENT TYPE S3 WILL BE 
          REFERRED TO AS S3R FROM HERE ON
  *Element, type=S4R
  *Element, type=S3

 ***NOTE: ELEMENT TYPES S3 AND S3R ARE IDENTICAL. ELEMENT TYPE S3 WILL BE 
          REFERRED TO AS S3R FROM HERE ON
  *Element, type=S4R
  *Element, type=S3

 ***NOTE: ELEMENT TYPES S3 AND S3R ARE IDENTICAL. ELEMENT TYPE S3 WILL BE 
          REFERRED TO AS S3R FROM HERE ON
  *Element, type=S4R
  *Element, type=S3

 ***NOTE: ELEMENT TYPES S3 AND S3R ARE IDENTICAL. ELEMENT TYPE S3 WILL BE 
          REFERRED TO AS S3R FROM HERE ON
  *Element, type=S4R
  *Element, type=S3

 ***NOTE: ELEMENT TYPES S3 AND S3R ARE IDENTICAL. ELEMENT TYPE S3 WILL BE 
          REFERRED TO AS S3R FROM HERE ON
  *Element, type=S4R
  *Element, type=S3

 ***NOTE: ELEMENT TYPES S3 AND S3R ARE IDENTICAL. ELEMENT TYPE S3 WILL BE 
          REFERRED TO AS S3R FROM HERE ON
  *Element, type=S4R
  *Element, type=S3

 ***NOTE: ELEMENT TYPES S3 AND S3R ARE IDENTICAL. ELEMENT TYPE S3 WILL BE 
          REFERRED TO AS S3R FROM HERE ON
  *Element, type=S4R
  *Element, type=S3

 ***NOTE: ELEMENT TYPES S3 AND S3R ARE IDENTICAL. ELEMENT TYPE S3 WILL BE 
          REFERRED TO AS S3R FROM HERE ON
  *Element, type=S4R
  *Element, type=S3

 ***NOTE: ELEMENT TYPES S3 AND S3R ARE IDENTICAL. ELEMENT TYPE S3 WILL BE 
          REFERRED TO AS S3R FROM HERE ON
  *Element, type=S4R
  *Element, type=S3

 ***NOTE: ELEMENT TYPES S3 AND S3R ARE IDENTICAL. ELEMENT TYPE S3 WILL BE 
          REFERRED TO AS S3R FROM HERE ON
  *Element, type=S4R
  *Element, type=S3

 ***NOTE: ELEMENT TYPES S3 AND S3R ARE IDENTICAL. ELEMENT TYPE S3 WILL BE 
          REFERRED TO AS S3R FROM HERE ON
  *Element, type=S4R
  *Element, type=S3

 ***NOTE: ELEMENT TYPES S3 AND S3R ARE IDENTICAL. ELEMENT TYPE S3 WILL BE 
          REFERRED TO AS S3R FROM HERE ON
  *Element, type=S4R
  *Element, type=S3

 ***NOTE: ELEMENT TYPES S3 AND S3R ARE IDENTICAL. ELEMENT TYPE S3 WILL BE 
          REFERRED TO AS S3R FROM HERE ON
  *Element, type=S4R
  *Element, type=S3

 ***NOTE: ELEMENT TYPES S3 AND S3R ARE IDENTICAL. ELEMENT TYPE S3 WILL BE 
          REFERRED TO AS S3R FROM HERE ON
  *Element, type=S4R
  *Element, type=S3

 ***NOTE: ELEMENT TYPES S3 AND S3R ARE IDENTICAL. ELEMENT TYPE S3 WILL BE 
          REFERRED TO AS S3R FROM HERE ON
  *Element, type=S4R
  *Element, type=S3

 ***NOTE: ELEMENT TYPES S3 AND S3R ARE IDENTICAL. ELEMENT TYPE S3 WILL BE 
          REFERRED TO AS S3R FROM HERE ON
  *Element, type=S4R
  *Element, type=S3

 ***NOTE: ELEMENT TYPES S3 AND S3R ARE IDENTICAL. ELEMENT TYPE S3 WILL BE 
          REFERRED TO AS S3R FROM HERE ON
  *Element, type=S4R
  *Element, type=S3

 ***NOTE: ELEMENT TYPES S3 AND S3R ARE IDENTICAL. ELEMENT TYPE S3 WILL BE 
          REFERRED TO AS S3R FROM HERE ON
  *Element, type=S4R
  *Element, type=S3

 ***NOTE: ELEMENT TYPES S3 AND S3R ARE IDENTICAL. ELEMENT TYPE S3 WILL BE 
          REFERRED TO AS S3R FROM HERE ON
  *Element, type=S4R
  *Element, type=S3

 ***NOTE: ELEMENT TYPES S3 AND S3R ARE IDENTICAL. ELEMENT TYPE S3 WILL BE 
          REFERRED TO AS S3R FROM HERE ON
  *Element, type=S4R
  *Element, type=S3

 ***NOTE: ELEMENT TYPES S3 AND S3R ARE IDENTICAL. ELEMENT TYPE S3 WILL BE 
          REFERRED TO AS S3R FROM HERE ON
  *Element, type=S4R
  *Element, type=S3

 ***NOTE: ELEMENT TYPES S3 AND S3R ARE IDENTICAL. ELEMENT TYPE S3 WILL BE 
          REFERRED TO AS S3R FROM HERE ON
  *Element, type=S4R
  *Element, type=S3

 ***NOTE: ELEMENT TYPES S3 AND S3R ARE IDENTICAL. ELEMENT TYPE S3 WILL BE 
          REFERRED TO AS S3R FROM HERE ON
  *Element, type=S4R
  *Element, type=S3

 ***NOTE: ELEMENT TYPES S3 AND S3R ARE IDENTICAL. ELEMENT TYPE S3 WILL BE 
          REFERRED TO AS S3R FROM HERE ON
  *Element, type=S4R
  *Element, type=S3

 ***NOTE: ELEMENT TYPES S3 AND S3R ARE IDENTICAL. ELEMENT TYPE S3 WILL BE 
          REFERRED TO AS S3R FROM HERE ON
  *Element, type=S4R
  *Element, type=S3

 ***NOTE: ELEMENT TYPES S3 AND S3R ARE IDENTICAL. ELEMENT TYPE S3 WILL BE 
          REFERRED TO AS S3R FROM HERE ON
  *Element, type=S4R
  *Element, type=S3

 ***NOTE: ELEMENT TYPES S3 AND S3R ARE IDENTICAL. ELEMENT TYPE S3 WILL BE 
          REFERRED TO AS S3R FROM HERE ON
  *Element, type=S4R
  *Element, type=S3

 ***NOTE: ELEMENT TYPES S3 AND S3R ARE IDENTICAL. ELEMENT TYPE S3 WILL BE 
          REFERRED TO AS S3R FROM HERE ON
  *Element, type=S4R
  *Element, type=S3

 ***NOTE: ELEMENT TYPES S3 AND S3R ARE IDENTICAL. ELEMENT TYPE S3 WILL BE 
          REFERRED TO AS S3R FROM HERE ON
  *Element, type=S4R
  *Element, type=S3

 ***NOTE: ELEMENT TYPES S3 AND S3R ARE IDENTICAL. ELEMENT TYPE S3 WILL BE 
          REFERRED TO AS S3R FROM HERE ON
  *Element, type=S4R
  *Element, type=S3

 ***NOTE: ELEMENT TYPES S3 AND S3R ARE IDENTICAL. ELEMENT TYPE S3 WILL BE 
          REFERRED TO AS S3R FROM HERE ON
  *Element, type=S4R
  *Element, type=S3

 ***NOTE: ELEMENT TYPES S3 AND S3R ARE IDENTICAL. ELEMENT TYPE S3 WILL BE 
          REFERRED TO AS S3R FROM HERE ON
  *Element, type=S4R
  *Element, type=S3

 ***NOTE: ELEMENT TYPES S3 AND S3R ARE IDENTICAL. ELEMENT TYPE S3 WILL BE 
          REFERRED TO AS S3R FROM HERE ON
  *Element, type=S4R
  *Element, type=S3

 ***NOTE: ELEMENT TYPES S3 AND S3R ARE IDENTICAL. ELEMENT TYPE S3 WILL BE 
          REFERRED TO AS S3R FROM HERE ON
  *Element, type=S4R
  *Element, type=S3

 ***NOTE: ELEMENT TYPES S3 AND S3R ARE IDENTICAL. ELEMENT TYPE S3 WILL BE 
          REFERRED TO AS S3R FROM HERE ON
  *Element, type=S4R
  *Element, type=S3

 ***NOTE: ELEMENT TYPES S3 AND S3R ARE IDENTICAL. ELEMENT TYPE S3 WILL BE 
          REFERRED TO AS S3R FROM HERE ON
  *Element, type=S4R
  *Element, type=S3

 ***NOTE: ELEMENT TYPES S3 AND S3R ARE IDENTICAL. ELEMENT TYPE S3 WILL BE 
          REFERRED TO AS S3R FROM HERE ON
  *Element, type=S4R
  *Element, type=S3

 ***NOTE: ELEMENT TYPES S3 AND S3R ARE IDENTICAL. ELEMENT TYPE S3 WILL BE 
          REFERRED TO AS S3R FROM HERE ON
  *Element, type=S4R
  *Element, type=S3

 ***NOTE: ELEMENT TYPES S3 AND S3R ARE IDENTICAL. ELEMENT TYPE S3 WILL BE 
          REFERRED TO AS S3R FROM HERE ON
  *Element, type=S4R
  *Element, type=S3

 ***NOTE: ELEMENT TYPES S3 AND S3R ARE IDENTICAL. ELEMENT TYPE S3 WILL BE 
          REFERRED TO AS S3R FROM HERE ON
  *Element, type=S4R
  *Element, type=S3

 ***NOTE: ELEMENT TYPES S3 AND S3R ARE IDENTICAL. ELEMENT TYPE S3 WILL BE 
          REFERRED TO AS S3R FROM HERE ON
  *Element, type=S4R
  *Element, type=S3

 ***NOTE: ELEMENT TYPES S3 AND S3R ARE IDENTICAL. ELEMENT TYPE S3 WILL BE 
          REFERRED TO AS S3R FROM HERE ON
  *Element, type=S4R
  *Element, type=S3

 ***NOTE: ELEMENT TYPES S3 AND S3R ARE IDENTICAL. ELEMENT TYPE S3 WILL BE 
          REFERRED TO AS S3R FROM HERE ON
  *Element, type=S4R
  *Element, type=S3

 ***NOTE: ELEMENT TYPES S3 AND S3R ARE IDENTICAL. ELEMENT TYPE S3 WILL BE 
          REFERRED TO AS S3R FROM HERE ON
  *Element, type=S4R
  *Element, type=S3

 ***NOTE: ELEMENT TYPES S3 AND S3R ARE IDENTICAL. ELEMENT TYPE S3 WILL BE 
          REFERRED TO AS S3R FROM HERE ON
  *Element, type=S4R
  *Element, type=S3

 ***NOTE: ELEMENT TYPES S3 AND S3R ARE IDENTICAL. ELEMENT TYPE S3 WILL BE 
          REFERRED TO AS S3R FROM HERE ON
  *Element, type=S4R
  *Element, type=S3

 ***NOTE: ELEMENT TYPES S3 AND S3R ARE IDENTICAL. ELEMENT TYPE S3 WILL BE 
          REFERRED TO AS S3R FROM HERE ON
  *Element, type=S4R
  *Element, type=S3

 ***NOTE: ELEMENT TYPES S3 AND S3R ARE IDENTICAL. ELEMENT TYPE S3 WILL BE 
          REFERRED TO AS S3R FROM HERE ON
  *Element, type=S4R
  *Element, type=S3

 ***NOTE: ELEMENT TYPES S3 AND S3R ARE IDENTICAL. ELEMENT TYPE S3 WILL BE 
          REFERRED TO AS S3R FROM HERE ON
  *Element, type=S4R
  *Element, type=S3

 ***NOTE: ELEMENT TYPES S3 AND S3R ARE IDENTICAL. ELEMENT TYPE S3 WILL BE 
          REFERRED TO AS S3R FROM HERE ON
  *Element, type=S4R
  *Element, type=S3

 ***NOTE: ELEMENT TYPES S3 AND S3R ARE IDENTICAL. ELEMENT TYPE S3 WILL BE 
          REFERRED TO AS S3R FROM HERE ON
  *Element, type=S4R
  *Element, type=S3

 ***NOTE: ELEMENT TYPES S3 AND S3R ARE IDENTICAL. ELEMENT TYPE S3 WILL BE 
          REFERRED TO AS S3R FROM HERE ON
  *Element, type=S4R
  *Element, type=S3

 ***NOTE: ELEMENT TYPES S3 AND S3R ARE IDENTICAL. ELEMENT TYPE S3 WILL BE 
          REFERRED TO AS S3R FROM HERE ON
  *Element, type=S4R
  *Element, type=S3

 ***NOTE: ELEMENT TYPES S3 AND S3R ARE IDENTICAL. ELEMENT TYPE S3 WILL BE 
          REFERRED TO AS S3R FROM HERE ON
  *Element, type=S4R
  *Element, type=S3

 ***NOTE: ELEMENT TYPES S3 AND S3R ARE IDENTICAL. ELEMENT TYPE S3 WILL BE 
          REFERRED TO AS S3R FROM HERE ON
  *Element, type=S4R
  *Element, type=S3

 ***NOTE: ELEMENT TYPES S3 AND S3R ARE IDENTICAL. ELEMENT TYPE S3 WILL BE 
          REFERRED TO AS S3R FROM HERE ON
  *Element, type=S4R
  *Element, type=S3

 ***NOTE: ELEMENT TYPES S3 AND S3R ARE IDENTICAL. ELEMENT TYPE S3 WILL BE 
          REFERRED TO AS S3R FROM HERE ON
  *Element, type=S4R
  *Element, type=S3

 ***NOTE: ELEMENT TYPES S3 AND S3R ARE IDENTICAL. ELEMENT TYPE S3 WILL BE 
          REFERRED TO AS S3R FROM HERE ON
  *Element, type=S4R
  *Element, type=S3

 ***NOTE: ELEMENT TYPES S3 AND S3R ARE IDENTICAL. ELEMENT TYPE S3 WILL BE 
          REFERRED TO AS S3R FROM HERE ON
  *Element, type=S4R
  *Element, type=S3

 ***NOTE: ELEMENT TYPES S3 AND S3R ARE IDENTICAL. ELEMENT TYPE S3 WILL BE 
          REFERRED TO AS S3R FROM HERE ON
  *Element, type=S4R
  *Element, type=S3

 ***NOTE: ELEMENT TYPES S3 AND S3R ARE IDENTICAL. ELEMENT TYPE S3 WILL BE 
          REFERRED TO AS S3R FROM HERE ON
  *Element, type=S4R
  *Element, type=S3

 ***NOTE: ELEMENT TYPES S3 AND S3R ARE IDENTICAL. ELEMENT TYPE S3 WILL BE 
          REFERRED TO AS S3R FROM HERE ON
  *Element, type=S4R
  *Element, type=S3

 ***NOTE: ELEMENT TYPES S3 AND S3R ARE IDENTICAL. ELEMENT TYPE S3 WILL BE 
          REFERRED TO AS S3R FROM HERE ON
  *Element, type=S4R
  *Element, type=S3

 ***NOTE: ELEMENT TYPES S3 AND S3R ARE IDENTICAL. ELEMENT TYPE S3 WILL BE 
          REFERRED TO AS S3R FROM HERE ON
  *Element, type=S4R
  *Element, type=S3

 ***NOTE: ELEMENT TYPES S3 AND S3R ARE IDENTICAL. ELEMENT TYPE S3 WILL BE 
          REFERRED TO AS S3R FROM HERE ON
  *Element, type=S4R
  *Element, type=S3

 ***NOTE: ELEMENT TYPES S3 AND S3R ARE IDENTICAL. ELEMENT TYPE S3 WILL BE 
          REFERRED TO AS S3R FROM HERE ON
  *Element, type=S4R
  *Element, type=S3

 ***NOTE: ELEMENT TYPES S3 AND S3R ARE IDENTICAL. ELEMENT TYPE S3 WILL BE 
          REFERRED TO AS S3R FROM HERE ON
  *Element, type=S4R
  *Element, type=S3

 ***NOTE: ELEMENT TYPES S3 AND S3R ARE IDENTICAL. ELEMENT TYPE S3 WILL BE 
          REFERRED TO AS S3R FROM HERE ON
  *Element, type=S4R
  *Element, type=S3

 ***NOTE: ELEMENT TYPES S3 AND S3R ARE IDENTICAL. ELEMENT TYPE S3 WILL BE 
          REFERRED TO AS S3R FROM HERE ON
  *Element, type=S4R
  *Element, type=S3

 ***NOTE: ELEMENT TYPES S3 AND S3R ARE IDENTICAL. ELEMENT TYPE S3 WILL BE 
          REFERRED TO AS S3R FROM HERE ON
  *Element, type=S4R
  *Element, type=S3

 ***NOTE: ELEMENT TYPES S3 AND S3R ARE IDENTICAL. ELEMENT TYPE S3 WILL BE 
          REFERRED TO AS S3R FROM HERE ON
  *Element, type=S4R
  *Element, type=S3

 ***NOTE: ELEMENT TYPES S3 AND S3R ARE IDENTICAL. ELEMENT TYPE S3 WILL BE 
          REFERRED TO AS S3R FROM HERE ON
  *Element, type=S4R
  *Element, type=S3

 ***NOTE: ELEMENT TYPES S3 AND S3R ARE IDENTICAL. ELEMENT TYPE S3 WILL BE 
          REFERRED TO AS S3R FROM HERE ON
  *Element, type=S4R
  *Element, type=S3

 ***NOTE: ELEMENT TYPES S3 AND S3R ARE IDENTICAL. ELEMENT TYPE S3 WILL BE 
          REFERRED TO AS S3R FROM HERE ON
  *Element, type=S4R
  *Element, type=S3

 ***NOTE: ELEMENT TYPES S3 AND S3R ARE IDENTICAL. ELEMENT TYPE S3 WILL BE 
          REFERRED TO AS S3R FROM HERE ON
  *Element, type=S4R
  *Element, type=S3

 ***NOTE: ELEMENT TYPES S3 AND S3R ARE IDENTICAL. ELEMENT TYPE S3 WILL BE 
          REFERRED TO AS S3R FROM HERE ON
  *Element, type=S4R
  *Element, type=S3

 ***NOTE: ELEMENT TYPES S3 AND S3R ARE IDENTICAL. ELEMENT TYPE S3 WILL BE 
          REFERRED TO AS S3R FROM HERE ON
  *Element, type=S4R
  *Element, type=S3

 ***NOTE: ELEMENT TYPES S3 AND S3R ARE IDENTICAL. ELEMENT TYPE S3 WILL BE 
          REFERRED TO AS S3R FROM HERE ON
  *Element, type=S4R
  *Element, type=S3

 ***NOTE: ELEMENT TYPES S3 AND S3R ARE IDENTICAL. ELEMENT TYPE S3 WILL BE 
          REFERRED TO AS S3R FROM HERE ON
  *Element, type=S4R
  *Element, type=S3

 ***NOTE: ELEMENT TYPES S3 AND S3R ARE IDENTICAL. ELEMENT TYPE S3 WILL BE 
          REFERRED TO AS S3R FROM HERE ON
  *Element, type=S4R
  *Element, type=S3

 ***NOTE: ELEMENT TYPES S3 AND S3R ARE IDENTICAL. ELEMENT TYPE S3 WILL BE 
          REFERRED TO AS S3R FROM HERE ON
  *Element, type=S4R
  *Element, type=S3

 ***NOTE: ELEMENT TYPES S3 AND S3R ARE IDENTICAL. ELEMENT TYPE S3 WILL BE 
          REFERRED TO AS S3R FROM HERE ON
  *Element, type=S4R
  *Element, type=S3

 ***NOTE: ELEMENT TYPES S3 AND S3R ARE IDENTICAL. ELEMENT TYPE S3 WILL BE 
          REFERRED TO AS S3R FROM HERE ON
  *Element, type=S4R
  *Element, type=S3

 ***NOTE: ELEMENT TYPES S3 AND S3R ARE IDENTICAL. ELEMENT TYPE S3 WILL BE 
          REFERRED TO AS S3R FROM HERE ON
  *Element, type=S4R
  *Element, type=S3

 ***NOTE: ELEMENT TYPES S3 AND S3R ARE IDENTICAL. ELEMENT TYPE S3 WILL BE 
          REFERRED TO AS S3R FROM HERE ON
  *Element, type=S4R
  *Element, type=S3

 ***NOTE: ELEMENT TYPES S3 AND S3R ARE IDENTICAL. ELEMENT TYPE S3 WILL BE 
          REFERRED TO AS S3R FROM HERE ON
  *Element, type=S4R
  *Element, type=S3

 ***NOTE: ELEMENT TYPES S3 AND S3R ARE IDENTICAL. ELEMENT TYPE S3 WILL BE 
          REFERRED TO AS S3R FROM HERE ON
  *Element, type=S4R
  *Element, type=S3

 ***NOTE: ELEMENT TYPES S3 AND S3R ARE IDENTICAL. ELEMENT TYPE S3 WILL BE 
          REFERRED TO AS S3R FROM HERE ON
  *Element, type=S4R
  *Element, type=S3

 ***NOTE: ELEMENT TYPES S3 AND S3R ARE IDENTICAL. ELEMENT TYPE S3 WILL BE 
          REFERRED TO AS S3R FROM HERE ON
  *Element, type=S4R
  *Element, type=S3

 ***NOTE: ELEMENT TYPES S3 AND S3R ARE IDENTICAL. ELEMENT TYPE S3 WILL BE 
          REFERRED TO AS S3R FROM HERE ON
  *Element, type=S4R
  *Element, type=S3

 ***NOTE: ELEMENT TYPES S3 AND S3R ARE IDENTICAL. ELEMENT TYPE S3 WILL BE 
          REFERRED TO AS S3R FROM HERE ON
  *Element, type=S4R
  *Element, type=S3

 ***NOTE: ELEMENT TYPES S3 AND S3R ARE IDENTICAL. ELEMENT TYPE S3 WILL BE 
          REFERRED TO AS S3R FROM HERE ON
  *Element, type=S4R
  *Element, type=S3

 ***NOTE: ELEMENT TYPES S3 AND S3R ARE IDENTICAL. ELEMENT TYPE S3 WILL BE 
          REFERRED TO AS S3R FROM HERE ON
  *Element, type=S4R
  *Element, type=S3

 ***NOTE: ELEMENT TYPES S3 AND S3R ARE IDENTICAL. ELEMENT TYPE S3 WILL BE 
          REFERRED TO AS S3R FROM HERE ON
  *Element, type=S4R
  *Element, type=S3

 ***NOTE: ELEMENT TYPES S3 AND S3R ARE IDENTICAL. ELEMENT TYPE S3 WILL BE 
          REFERRED TO AS S3R FROM HERE ON
  *Element, type=S4R
  *Element, type=S3

 ***NOTE: ELEMENT TYPES S3 AND S3R ARE IDENTICAL. ELEMENT TYPE S3 WILL BE 
          REFERRED TO AS S3R FROM HERE ON
  *Element, type=S4R
  *Element, type=S3

 ***NOTE: ELEMENT TYPES S3 AND S3R ARE IDENTICAL. ELEMENT TYPE S3 WILL BE 
          REFERRED TO AS S3R FROM HERE ON
  *Element, type=S4R
  *Element, type=S3

 ***NOTE: ELEMENT TYPES S3 AND S3R ARE IDENTICAL. ELEMENT TYPE S3 WILL BE 
          REFERRED TO AS S3R FROM HERE ON
  *Element, type=S4R
  *Element, type=S3

 ***NOTE: ELEMENT TYPES S3 AND S3R ARE IDENTICAL. ELEMENT TYPE S3 WILL BE 
          REFERRED TO AS S3R FROM HERE ON
  *Element, type=S4R
  *Element, type=S3

 ***NOTE: ELEMENT TYPES S3 AND S3R ARE IDENTICAL. ELEMENT TYPE S3 WILL BE 
          REFERRED TO AS S3R FROM HERE ON
  *Element, type=S4R
  *Element, type=S3

 ***NOTE: ELEMENT TYPES S3 AND S3R ARE IDENTICAL. ELEMENT TYPE S3 WILL BE 
          REFERRED TO AS S3R FROM HERE ON
  *Element, type=S4R
  *Element, type=S3

 ***NOTE: ELEMENT TYPES S3 AND S3R ARE IDENTICAL. ELEMENT TYPE S3 WILL BE 
          REFERRED TO AS S3R FROM HERE ON
  *Element, type=S4R
  *Element, type=S3

 ***NOTE: ELEMENT TYPES S3 AND S3R ARE IDENTICAL. ELEMENT TYPE S3 WILL BE 
          REFERRED TO AS S3R FROM HERE ON
  *Element, type=S4R
  *Element, type=S3

 ***NOTE: ELEMENT TYPES S3 AND S3R ARE IDENTICAL. ELEMENT TYPE S3 WILL BE 
          REFERRED TO AS S3R FROM HERE ON
  *Element, type=S4R
  *Element, type=S3

 ***NOTE: ELEMENT TYPES S3 AND S3R ARE IDENTICAL. ELEMENT TYPE S3 WILL BE 
          REFERRED TO AS S3R FROM HERE ON
  *Element, type=S4R
  *Element, type=S3

 ***NOTE: ELEMENT TYPES S3 AND S3R ARE IDENTICAL. ELEMENT TYPE S3 WILL BE 
          REFERRED TO AS S3R FROM HERE ON
  *Element, type=S4R
  *Element, type=S3

 ***NOTE: ELEMENT TYPES S3 AND S3R ARE IDENTICAL. ELEMENT TYPE S3 WILL BE 
          REFERRED TO AS S3R FROM HERE ON
  *Element, type=S4R
  *Element, type=S3

 ***NOTE: ELEMENT TYPES S3 AND S3R ARE IDENTICAL. ELEMENT TYPE S3 WILL BE 
          REFERRED TO AS S3R FROM HERE ON
  *Element, type=S4R
  *Element, type=S3

 ***NOTE: ELEMENT TYPES S3 AND S3R ARE IDENTICAL. ELEMENT TYPE S3 WILL BE 
          REFERRED TO AS S3R FROM HERE ON
  *Element, type=S4R
  *Element, type=S3

 ***NOTE: ELEMENT TYPES S3 AND S3R ARE IDENTICAL. ELEMENT TYPE S3 WILL BE 
          REFERRED TO AS S3R FROM HERE ON
  *Element, type=S4R
  *Element, type=S3

 ***NOTE: ELEMENT TYPES S3 AND S3R ARE IDENTICAL. ELEMENT TYPE S3 WILL BE 
          REFERRED TO AS S3R FROM HERE ON
  *Element, type=S4R
  *Element, type=S3

 ***NOTE: ELEMENT TYPES S3 AND S3R ARE IDENTICAL. ELEMENT TYPE S3 WILL BE 
          REFERRED TO AS S3R FROM HERE ON
  *Element, type=S4R
  *Element, type=S3

 ***NOTE: ELEMENT TYPES S3 AND S3R ARE IDENTICAL. ELEMENT TYPE S3 WILL BE 
          REFERRED TO AS S3R FROM HERE ON
  *Element, type=S4R
  *Element, type=S3

 ***NOTE: ELEMENT TYPES S3 AND S3R ARE IDENTICAL. ELEMENT TYPE S3 WILL BE 
          REFERRED TO AS S3R FROM HERE ON
  *Element, type=S4R
  *Element, type=S3

 ***NOTE: ELEMENT TYPES S3 AND S3R ARE IDENTICAL. ELEMENT TYPE S3 WILL BE 
          REFERRED TO AS S3R FROM HERE ON
  *Element, type=S4R
  *Element, type=S3

 ***NOTE: ELEMENT TYPES S3 AND S3R ARE IDENTICAL. ELEMENT TYPE S3 WILL BE 
          REFERRED TO AS S3R FROM HERE ON
  *Element, type=S4R
  *Element, type=S3

 ***NOTE: ELEMENT TYPES S3 AND S3R ARE IDENTICAL. ELEMENT TYPE S3 WILL BE 
          REFERRED TO AS S3R FROM HERE ON
  *Element, type=S4R
  *Element, type=S3

 ***NOTE: ELEMENT TYPES S3 AND S3R ARE IDENTICAL. ELEMENT TYPE S3 WILL BE 
          REFERRED TO AS S3R FROM HERE ON
  *Element, type=S4R
  *Element, type=S3

 ***NOTE: ELEMENT TYPES S3 AND S3R ARE IDENTICAL. ELEMENT TYPE S3 WILL BE 
          REFERRED TO AS S3R FROM HERE ON
  *Element, type=S4R
  *Element, type=S3

 ***NOTE: ELEMENT TYPES S3 AND S3R ARE IDENTICAL. ELEMENT TYPE S3 WILL BE 
          REFERRED TO AS S3R FROM HERE ON
  *Element, type=S4R
  *Element, type=S3

 ***NOTE: ELEMENT TYPES S3 AND S3R ARE IDENTICAL. ELEMENT TYPE S3 WILL BE 
          REFERRED TO AS S3R FROM HERE ON
  *Element, type=S4R
  *Element, type=S3

 ***NOTE: ELEMENT TYPES S3 AND S3R ARE IDENTICAL. ELEMENT TYPE S3 WILL BE 
          REFERRED TO AS S3R FROM HERE ON
  *Element, type=S4R
  *Element, type=S3

 ***NOTE: ELEMENT TYPES S3 AND S3R ARE IDENTICAL. ELEMENT TYPE S3 WILL BE 
          REFERRED TO AS S3R FROM HERE ON
  *Element, type=S4R
  *Element, type=S3

 ***NOTE: ELEMENT TYPES S3 AND S3R ARE IDENTICAL. ELEMENT TYPE S3 WILL BE 
          REFERRED TO AS S3R FROM HERE ON
  *Element, type=S4R
  *Element, type=S3

 ***NOTE: ELEMENT TYPES S3 AND S3R ARE IDENTICAL. ELEMENT TYPE S3 WILL BE 
          REFERRED TO AS S3R FROM HERE ON
  *Element, type=S4R
  *Element, type=S3

 ***NOTE: ELEMENT TYPES S3 AND S3R ARE IDENTICAL. ELEMENT TYPE S3 WILL BE 
          REFERRED TO AS S3R FROM HERE ON
  *Element, type=S4R
  *Element, type=S3

 ***NOTE: ELEMENT TYPES S3 AND S3R ARE IDENTICAL. ELEMENT TYPE S3 WILL BE 
          REFERRED TO AS S3R FROM HERE ON
  *Element, type=S4R
  *Nset, nset=ASSEMBLY_REPETATIVE_FRAME-1_COUPLING_1_P
  *Nset, nset=ASSEMBLY_REPETATIVE_FRAME-1_COUPLING_2_P
  *Nset, nset=ASSEMBLY_REPETATIVE_FRAME-1_COUPLING_3_P
  *Nset, nset=ASSEMBLY_REPETATIVE_FRAME-1_COUPLING_4_P
  *Nset, nset=ASSEMBLY_REPETATIVE_FRAME-1_COUPLING_4_R
  *Nset, nset=ASSEMBLY_REPETATIVE_FRAME-1_COUPLING_5_P
  *Nset, nset=ASSEMBLY_REPETATIVE_FRAME-1_COUPLING_5_R
  *Nset, nset=ASSEMBLY_REPETATIVE_FRAME-1_COUPLING_6_R
  *Nset, nset=ASSEMBLY_REPETATIVE_FRAME-1_COUPLING_7_P
  *Nset, nset=ASSEMBLY_REPETATIVE_FRAME-1_COUPLING_7_R
  *Nset, nset=ASSEMBLY_REPETATIVE_FRAME-1_COUPLING_8_P
  *Nset, nset=ASSEMBLY_REPETATIVE_FRAME-1_COUPLING_8_R
  *Nset, nset=ASSEMBLY_REPETATIVE_FRAME-1_COUPLING_9_R
  *Nset, nset=ASSEMBLY_REPETATIVE_FRAME-1_SECTION_10MM_SHELL
  *Nset, nset=ASSEMBLY_REPETATIVE_FRAME-1_SECTION_12MM_SHELL
  *Nset, nset=ASSEMBLY_REPETATIVE_FRAME-1_SECTION_15MM_SHELL
  *Nset, nset=ASSEMBLY_REPETATIVE_FRAME-1_SECTION_190_INSULATOR
  *Nset, nset=ASSEMBLY_REPETATIVE_FRAME-1_SECTION_20MM_SHELL
  *Nset, nset=ASSEMBLY_REPETATIVE_FRAME-1_SECTION_2MM_SHELL
  *Nset, nset=ASSEMBLY_REPETATIVE_FRAME-1_SECTION_300_ARRESTER
  *Nset, nset=ASSEMBLY_REPETATIVE_FRAME-1_SECTION_30_INSULATOR
  *Nset, nset=ASSEMBLY_REPETATIVE_FRAME-1_SECTION_34MM_SHELL
  *Nset, nset=ASSEMBLY_REPETATIVE_FRAME-1_SECTION_46MM_SHELL
  *Nset, nset=ASSEMBLY_REPETATIVE_FRAME-1_SECTION_8MM_SHELL
  *Nset, nset=ASSEMBLY_REPETATIVE_FRAME-1_TIE_10_M
  *Nset, nset=ASSEMBLY_REPETATIVE_FRAME-1_TIE_10_S
  *Nset, nset=ASSEMBLY_REPETATIVE_FRAME-1_TIE_11_M
  *Nset, nset=ASSEMBLY_REPETATIVE_FRAME-1_TIE_11_S
  *Nset, nset=ASSEMBLY_REPETATIVE_FRAME-1_TIE_12_M
  *Nset, nset=ASSEMBLY_REPETATIVE_FRAME-1_TIE_12_S
  *Nset, nset=ASSEMBLY_REPETATIVE_FRAME-1_TIE_13_M
  *Nset, nset=ASSEMBLY_REPETATIVE_FRAME-1_TIE_13_S
  *Nset, nset=ASSEMBLY_REPETATIVE_FRAME-1_TIE_14_M
  *Nset, nset=ASSEMBLY_REPETATIVE_FRAME-1_TIE_14_S
  *Nset, nset=ASSEMBLY_REPETATIVE_FRAME-1_TIE_15_M
  *Nset, nset=ASSEMBLY_REPETATIVE_FRAME-1_TIE_15_S
  *Nset, nset=ASSEMBLY_REPETATIVE_FRAME-1_TIE_1_M
  *Nset, nset=ASSEMBLY_REPETATIVE_FRAME-1_TIE_2_S
  *Nset, nset=ASSEMBLY_REPETATIVE_FRAME-1_TIE_3_M
  *Nset, nset=ASSEMBLY_REPETATIVE_FRAME-1_TIE_3_S
  *Nset, nset=ASSEMBLY_REPETATIVE_FRAME-1_TIE_4_M
  *Nset, nset=ASSEMBLY_REPETATIVE_FRAME-1_TIE_4_S
  *Nset, nset=ASSEMBLY_REPETATIVE_FRAME-1_TIE_5_M
  *Nset, nset=ASSEMBLY_REPETATIVE_FRAME-1_TIE_5_S
  *Nset, nset=ASSEMBLY_REPETATIVE_FRAME-1_TIE_6_M
  *Nset, nset=ASSEMBLY_REPETATIVE_FRAME-1_TIE_6_S
  *Nset, nset=ASSEMBLY_REPETATIVE_FRAME-1_TIE_7_M
  *Nset, nset=ASSEMBLY_REPETATIVE_FRAME-1_TIE_7_S
  *Nset, nset=ASSEMBLY_REPETATIVE_FRAME-1_TIE_8_M
  *Nset, nset=ASSEMBLY_REPETATIVE_FRAME-1_TIE_8_S
  *Nset, nset=ASSEMBLY_REPETATIVE_FRAME-1_TIE_9_M
  *Nset, nset=ASSEMBLY_REPETATIVE_FRAME-1_TIE_9_S
  *Nset, nset=ASSEMBLY_REPETATIVE_FRAME-1__PICKEDSET102
  *Nset, nset=ASSEMBLY_REPETATIVE_FRAME-1__PICKEDSET103
  *Elset, elset=ASSEMBLY_REPETATIVE_FRAME-1_COUPLING_4_R
  *Elset, elset=ASSEMBLY_REPETATIVE_FRAME-1_COUPLING_5_R
  *Elset, elset=ASSEMBLY_REPETATIVE_FRAME-1_COUPLING_6_R
  *Elset, elset=ASSEMBLY_REPETATIVE_FRAME-1_COUPLING_7_R
  *Elset, elset=ASSEMBLY_REPETATIVE_FRAME-1_COUPLING_8_R
  *Elset, elset=ASSEMBLY_REPETATIVE_FRAME-1_COUPLING_9_R
  *Elset, elset=ASSEMBLY_REPETATIVE_FRAME-1_SECTION_10MM_SHELL
  *Elset, elset=ASSEMBLY_REPETATIVE_FRAME-1_SECTION_12MM_SHELL
  *Elset, elset=ASSEMBLY_REPETATIVE_FRAME-1_SECTION_15MM_SHELL
  *Elset, elset=ASSEMBLY_REPETATIVE_FRAME-1_SECTION_190_INSULATOR
  *Elset, elset=ASSEMBLY_REPETATIVE_FRAME-1_SECTION_20MM_SHELL
  *Elset, elset=ASSEMBLY_REPETATIVE_FRAME-1_SECTION_2MM_SHELL
  *Elset, elset=ASSEMBLY_REPETATIVE_FRAME-1_SECTION_300_ARRESTER
  *Elset, elset=ASSEMBLY_REPETATIVE_FRAME-1_SECTION_30_INSULATOR
  *Elset, elset=ASSEMBLY_REPETATIVE_FRAME-1_SECTION_34MM_SHELL
  *Elset, elset=ASSEMBLY_REPETATIVE_FRAME-1_SECTION_46MM_SHELL
  *Elset, elset=ASSEMBLY_REPETATIVE_FRAME-1_SECTION_8MM_SHELL
  *Elset, elset=ASSEMBLY_REPETATIVE_FRAME-1_TIE_10_M
  *Elset, elset=ASSEMBLY_REPETATIVE_FRAME-1_TIE_10_S
  *Elset, elset=ASSEMBLY_REPETATIVE_FRAME-1_TIE_11_M
  *Elset, elset=ASSEMBLY_REPETATIVE_FRAME-1_TIE_11_S
  *Elset, elset=ASSEMBLY_REPETATIVE_FRAME-1_TIE_12_M
  *Elset, elset=ASSEMBLY_REPETATIVE_FRAME-1_TIE_12_S
  *Elset, elset=ASSEMBLY_REPETATIVE_FRAME-1_TIE_13_M
  *Elset, elset=ASSEMBLY_REPETATIVE_FRAME-1_TIE_13_S
  *Elset, elset=ASSEMBLY_REPETATIVE_FRAME-1_TIE_14_M
  *Elset, elset=ASSEMBLY_REPETATIVE_FRAME-1_TIE_14_S
  *Elset, elset=ASSEMBLY_REPETATIVE_FRAME-1_TIE_15_M
  *Elset, elset=ASSEMBLY_REPETATIVE_FRAME-1_TIE_15_S
  *Elset, elset=ASSEMBLY_REPETATIVE_FRAME-1_TIE_1_M
  *Elset, elset=ASSEMBLY_REPETATIVE_FRAME-1_TIE_2_S
  *Elset, elset=ASSEMBLY_REPETATIVE_FRAME-1_TIE_3_M
  *Elset, elset=ASSEMBLY_REPETATIVE_FRAME-1_TIE_3_S
  *Elset, elset=ASSEMBLY_REPETATIVE_FRAME-1_TIE_4_M
  *Elset, elset=ASSEMBLY_REPETATIVE_FRAME-1_TIE_4_S
  *Elset, elset=ASSEMBLY_REPETATIVE_FRAME-1_TIE_5_M
  *Elset, elset=ASSEMBLY_REPETATIVE_FRAME-1_TIE_5_S
  *Elset, elset=ASSEMBLY_REPETATIVE_FRAME-1_TIE_6_M
  *Elset, elset=ASSEMBLY_REPETATIVE_FRAME-1_TIE_6_S
  *Elset, elset=ASSEMBLY_REPETATIVE_FRAME-1_TIE_7_M
  *Elset, elset=ASSEMBLY_REPETATIVE_FRAME-1_TIE_7_S
  *Elset, elset=ASSEMBLY_REPETATIVE_FRAME-1_TIE_8_M
  *Elset, elset=ASSEMBLY_REPETATIVE_FRAME-1_TIE_8_S
  *Elset, elset=ASSEMBLY_REPETATIVE_FRAME-1_TIE_9_M
  *Elset, elset=ASSEMBLY_REPETATIVE_FRAME-1_TIE_9_S
  *Elset, elset=ASSEMBLY_REPETATIVE_FRAME-1__PICKEDSET102
  *Elset, elset=ASSEMBLY_REPETATIVE_FRAME-1__PICKEDSET103
  *Node
  *Element, type=S4R
  *Element, type=B31
  *Element, type=S4R
  *Element, type=S3

 ***NOTE: ELEMENT TYPES S3 AND S3R ARE IDENTICAL. ELEMENT TYPE S3 WILL BE 
          REFERRED TO AS S3R FROM HERE ON
  *Element, type=S4R
  *Element, type=S3

 ***NOTE: ELEMENT TYPES S3 AND S3R ARE IDENTICAL. ELEMENT TYPE S3 WILL BE 
          REFERRED TO AS S3R FROM HERE ON
  *Element, type=S4R
  *Element, type=S3

 ***NOTE: ELEMENT TYPES S3 AND S3R ARE IDENTICAL. ELEMENT TYPE S3 WILL BE 
          REFERRED TO AS S3R FROM HERE ON
  *Element, type=S4R
  *Element, type=S3

 ***NOTE: ELEMENT TYPES S3 AND S3R ARE IDENTICAL. ELEMENT TYPE S3 WILL BE 
          REFERRED TO AS S3R FROM HERE ON
  *Element, type=S4R
  *Element, type=S3

 ***NOTE: ELEMENT TYPES S3 AND S3R ARE IDENTICAL. ELEMENT TYPE S3 WILL BE 
          REFERRED TO AS S3R FROM HERE ON
  *Element, type=S4R
  *Element, type=S3

 ***NOTE: ELEMENT TYPES S3 AND S3R ARE IDENTICAL. ELEMENT TYPE S3 WILL BE 
          REFERRED TO AS S3R FROM HERE ON
  *Element, type=S4R
  *Element, type=S3

 ***NOTE: ELEMENT TYPES S3 AND S3R ARE IDENTICAL. ELEMENT TYPE S3 WILL BE 
          REFERRED TO AS S3R FROM HERE ON
  *Element, type=S4R
  *Element, type=S3

 ***NOTE: ELEMENT TYPES S3 AND S3R ARE IDENTICAL. ELEMENT TYPE S3 WILL BE 
          REFERRED TO AS S3R FROM HERE ON
  *Element, type=S4R
  *Element, type=S3

 ***NOTE: ELEMENT TYPES S3 AND S3R ARE IDENTICAL. ELEMENT TYPE S3 WILL BE 
          REFERRED TO AS S3R FROM HERE ON
  *Element, type=S4R
  *Element, type=S3

 ***NOTE: ELEMENT TYPES S3 AND S3R ARE IDENTICAL. ELEMENT TYPE S3 WILL BE 
          REFERRED TO AS S3R FROM HERE ON
  *Element, type=S4R
  *Element, type=S3

 ***NOTE: ELEMENT TYPES S3 AND S3R ARE IDENTICAL. ELEMENT TYPE S3 WILL BE 
          REFERRED TO AS S3R FROM HERE ON
  *Element, type=S4R
  *Element, type=S3

 ***NOTE: ELEMENT TYPES S3 AND S3R ARE IDENTICAL. ELEMENT TYPE S3 WILL BE 
          REFERRED TO AS S3R FROM HERE ON
  *Element, type=S4R
  *Element, type=S3

 ***NOTE: ELEMENT TYPES S3 AND S3R ARE IDENTICAL. ELEMENT TYPE S3 WILL BE 
          REFERRED TO AS S3R FROM HERE ON
  *Element, type=S4R
  *Element, type=S3

 ***NOTE: ELEMENT TYPES S3 AND S3R ARE IDENTICAL. ELEMENT TYPE S3 WILL BE 
          REFERRED TO AS S3R FROM HERE ON
  *Element, type=S4R
  *Element, type=S3

 ***NOTE: ELEMENT TYPES S3 AND S3R ARE IDENTICAL. ELEMENT TYPE S3 WILL BE 
          REFERRED TO AS S3R FROM HERE ON
  *Element, type=S4R
  *Element, type=S3

 ***NOTE: ELEMENT TYPES S3 AND S3R ARE IDENTICAL. ELEMENT TYPE S3 WILL BE 
          REFERRED TO AS S3R FROM HERE ON
  *Element, type=S4R
  *Element, type=S3

 ***NOTE: ELEMENT TYPES S3 AND S3R ARE IDENTICAL. ELEMENT TYPE S3 WILL BE 
          REFERRED TO AS S3R FROM HERE ON
  *Element, type=S4R
  *Element, type=S3

 ***NOTE: ELEMENT TYPES S3 AND S3R ARE IDENTICAL. ELEMENT TYPE S3 WILL BE 
          REFERRED TO AS S3R FROM HERE ON
  *Element, type=S4R
  *Element, type=S3

 ***NOTE: ELEMENT TYPES S3 AND S3R ARE IDENTICAL. ELEMENT TYPE S3 WILL BE 
          REFERRED TO AS S3R FROM HERE ON
  *Element, type=S4R
  *Element, type=S3

 ***NOTE: ELEMENT TYPES S3 AND S3R ARE IDENTICAL. ELEMENT TYPE S3 WILL BE 
          REFERRED TO AS S3R FROM HERE ON
  *Element, type=S4R
  *Element, type=S3

 ***NOTE: ELEMENT TYPES S3 AND S3R ARE IDENTICAL. ELEMENT TYPE S3 WILL BE 
          REFERRED TO AS S3R FROM HERE ON
  *Element, type=S4R
  *Element, type=S3

 ***NOTE: ELEMENT TYPES S3 AND S3R ARE IDENTICAL. ELEMENT TYPE S3 WILL BE 
          REFERRED TO AS S3R FROM HERE ON
  *Element, type=S4R
  *Element, type=S3

 ***NOTE: ELEMENT TYPES S3 AND S3R ARE IDENTICAL. ELEMENT TYPE S3 WILL BE 
          REFERRED TO AS S3R FROM HERE ON
  *Element, type=S4R
  *Element, type=S3

 ***NOTE: ELEMENT TYPES S3 AND S3R ARE IDENTICAL. ELEMENT TYPE S3 WILL BE 
          REFERRED TO AS S3R FROM HERE ON
  *Element, type=S4R
  *Element, type=S3

 ***NOTE: ELEMENT TYPES S3 AND S3R ARE IDENTICAL. ELEMENT TYPE S3 WILL BE 
          REFERRED TO AS S3R FROM HERE ON
  *Element, type=S4R
  *Element, type=S3

 ***NOTE: ELEMENT TYPES S3 AND S3R ARE IDENTICAL. ELEMENT TYPE S3 WILL BE 
          REFERRED TO AS S3R FROM HERE ON
  *Element, type=S4R
  *Element, type=S3

 ***NOTE: ELEMENT TYPES S3 AND S3R ARE IDENTICAL. ELEMENT TYPE S3 WILL BE 
          REFERRED TO AS S3R FROM HERE ON
  *Element, type=S4R
  *Element, type=S3

 ***NOTE: ELEMENT TYPES S3 AND S3R ARE IDENTICAL. ELEMENT TYPE S3 WILL BE 
          REFERRED TO AS S3R FROM HERE ON
  *Element, type=S4R
  *Element, type=S3

 ***NOTE: ELEMENT TYPES S3 AND S3R ARE IDENTICAL. ELEMENT TYPE S3 WILL BE 
          REFERRED TO AS S3R FROM HERE ON
  *Element, type=S4R
  *Element, type=S3

 ***NOTE: ELEMENT TYPES S3 AND S3R ARE IDENTICAL. ELEMENT TYPE S3 WILL BE 
          REFERRED TO AS S3R FROM HERE ON
  *Element, type=S4R
  *Element, type=S3

 ***NOTE: ELEMENT TYPES S3 AND S3R ARE IDENTICAL. ELEMENT TYPE S3 WILL BE 
          REFERRED TO AS S3R FROM HERE ON
  *Element, type=S4R
  *Element, type=S3

 ***NOTE: ELEMENT TYPES S3 AND S3R ARE IDENTICAL. ELEMENT TYPE S3 WILL BE 
          REFERRED TO AS S3R FROM HERE ON
  *Element, type=S4R
  *Element, type=S3

 ***NOTE: ELEMENT TYPES S3 AND S3R ARE IDENTICAL. ELEMENT TYPE S3 WILL BE 
          REFERRED TO AS S3R FROM HERE ON
  *Element, type=S4R
  *Element, type=S3

 ***NOTE: ELEMENT TYPES S3 AND S3R ARE IDENTICAL. ELEMENT TYPE S3 WILL BE 
          REFERRED TO AS S3R FROM HERE ON
  *Element, type=S4R
  *Element, type=S3

 ***NOTE: ELEMENT TYPES S3 AND S3R ARE IDENTICAL. ELEMENT TYPE S3 WILL BE 
          REFERRED TO AS S3R FROM HERE ON
  *Element, type=S4R
  *Element, type=S3

 ***NOTE: ELEMENT TYPES S3 AND S3R ARE IDENTICAL. ELEMENT TYPE S3 WILL BE 
          REFERRED TO AS S3R FROM HERE ON
  *Element, type=S4R
  *Element, type=S3

 ***NOTE: ELEMENT TYPES S3 AND S3R ARE IDENTICAL. ELEMENT TYPE S3 WILL BE 
          REFERRED TO AS S3R FROM HERE ON
  *Element, type=S4R
  *Element, type=S3

 ***NOTE: ELEMENT TYPES S3 AND S3R ARE IDENTICAL. ELEMENT TYPE S3 WILL BE 
          REFERRED TO AS S3R FROM HERE ON
  *Element, type=S4R
  *Element, type=S3

 ***NOTE: ELEMENT TYPES S3 AND S3R ARE IDENTICAL. ELEMENT TYPE S3 WILL BE 
          REFERRED TO AS S3R FROM HERE ON
  *Element, type=S4R
  *Element, type=S3

 ***NOTE: ELEMENT TYPES S3 AND S3R ARE IDENTICAL. ELEMENT TYPE S3 WILL BE 
          REFERRED TO AS S3R FROM HERE ON
  *Element, type=S4R
  *Element, type=S3

 ***NOTE: ELEMENT TYPES S3 AND S3R ARE IDENTICAL. ELEMENT TYPE S3 WILL BE 
          REFERRED TO AS S3R FROM HERE ON
  *Element, type=S4R
  *Element, type=S3

 ***NOTE: ELEMENT TYPES S3 AND S3R ARE IDENTICAL. ELEMENT TYPE S3 WILL BE 
          REFERRED TO AS S3R FROM HERE ON
  *Element, type=S4R
  *Element, type=S3

 ***NOTE: ELEMENT TYPES S3 AND S3R ARE IDENTICAL. ELEMENT TYPE S3 WILL BE 
          REFERRED TO AS S3R FROM HERE ON
  *Element, type=S4R
  *Element, type=S3

 ***NOTE: ELEMENT TYPES S3 AND S3R ARE IDENTICAL. ELEMENT TYPE S3 WILL BE 
          REFERRED TO AS S3R FROM HERE ON
  *Element, type=S4R
  *Element, type=S3

 ***NOTE: ELEMENT TYPES S3 AND S3R ARE IDENTICAL. ELEMENT TYPE S3 WILL BE 
          REFERRED TO AS S3R FROM HERE ON
  *Element, type=S4R
  *Element, type=S3

 ***NOTE: ELEMENT TYPES S3 AND S3R ARE IDENTICAL. ELEMENT TYPE S3 WILL BE 
          REFERRED TO AS S3R FROM HERE ON
  *Element, type=S4R
  *Element, type=S3

 ***NOTE: ELEMENT TYPES S3 AND S3R ARE IDENTICAL. ELEMENT TYPE S3 WILL BE 
          REFERRED TO AS S3R FROM HERE ON
  *Element, type=S4R
  *Element, type=S3

 ***NOTE: ELEMENT TYPES S3 AND S3R ARE IDENTICAL. ELEMENT TYPE S3 WILL BE 
          REFERRED TO AS S3R FROM HERE ON
  *Element, type=S4R
  *Element, type=S3

 ***NOTE: ELEMENT TYPES S3 AND S3R ARE IDENTICAL. ELEMENT TYPE S3 WILL BE 
          REFERRED TO AS S3R FROM HERE ON
  *Element, type=S4R
  *Element, type=S3

 ***NOTE: ELEMENT TYPES S3 AND S3R ARE IDENTICAL. ELEMENT TYPE S3 WILL BE 
          REFERRED TO AS S3R FROM HERE ON
  *Element, type=S4R
  *Element, type=S3

 ***NOTE: ELEMENT TYPES S3 AND S3R ARE IDENTICAL. ELEMENT TYPE S3 WILL BE 
          REFERRED TO AS S3R FROM HERE ON
  *Element, type=S4R
  *Element, type=S3

 ***NOTE: ELEMENT TYPES S3 AND S3R ARE IDENTICAL. ELEMENT TYPE S3 WILL BE 
          REFERRED TO AS S3R FROM HERE ON
  *Element, type=S4R
  *Element, type=S3

 ***NOTE: ELEMENT TYPES S3 AND S3R ARE IDENTICAL. ELEMENT TYPE S3 WILL BE 
          REFERRED TO AS S3R FROM HERE ON
  *Element, type=S4R
  *Element, type=S3

 ***NOTE: ELEMENT TYPES S3 AND S3R ARE IDENTICAL. ELEMENT TYPE S3 WILL BE 
          REFERRED TO AS S3R FROM HERE ON
  *Element, type=S4R
  *Element, type=S3

 ***NOTE: ELEMENT TYPES S3 AND S3R ARE IDENTICAL. ELEMENT TYPE S3 WILL BE 
          REFERRED TO AS S3R FROM HERE ON
  *Element, type=S4R
  *Element, type=S3

 ***NOTE: ELEMENT TYPES S3 AND S3R ARE IDENTICAL. ELEMENT TYPE S3 WILL BE 
          REFERRED TO AS S3R FROM HERE ON
  *Element, type=S4R
  *Element, type=S3

 ***NOTE: ELEMENT TYPES S3 AND S3R ARE IDENTICAL. ELEMENT TYPE S3 WILL BE 
          REFERRED TO AS S3R FROM HERE ON
  *Element, type=S4R
  *Element, type=S3

 ***NOTE: ELEMENT TYPES S3 AND S3R ARE IDENTICAL. ELEMENT TYPE S3 WILL BE 
          REFERRED TO AS S3R FROM HERE ON
  *Element, type=S4R
  *Element, type=S3

 ***NOTE: ELEMENT TYPES S3 AND S3R ARE IDENTICAL. ELEMENT TYPE S3 WILL BE 
          REFERRED TO AS S3R FROM HERE ON
  *Element, type=S4R
  *Element, type=S3

 ***NOTE: ELEMENT TYPES S3 AND S3R ARE IDENTICAL. ELEMENT TYPE S3 WILL BE 
          REFERRED TO AS S3R FROM HERE ON
  *Element, type=S4R
  *Element, type=S3

 ***NOTE: ELEMENT TYPES S3 AND S3R ARE IDENTICAL. ELEMENT TYPE S3 WILL BE 
          REFERRED TO AS S3R FROM HERE ON
  *Element, type=S4R
  *Element, type=S3

 ***NOTE: ELEMENT TYPES S3 AND S3R ARE IDENTICAL. ELEMENT TYPE S3 WILL BE 
          REFERRED TO AS S3R FROM HERE ON
  *Element, type=S4R
  *Element, type=S3

 ***NOTE: ELEMENT TYPES S3 AND S3R ARE IDENTICAL. ELEMENT TYPE S3 WILL BE 
          REFERRED TO AS S3R FROM HERE ON
  *Element, type=S4R
  *Element, type=S3

 ***NOTE: ELEMENT TYPES S3 AND S3R ARE IDENTICAL. ELEMENT TYPE S3 WILL BE 
          REFERRED TO AS S3R FROM HERE ON
  *Element, type=S4R
  *Element, type=S3

 ***NOTE: ELEMENT TYPES S3 AND S3R ARE IDENTICAL. ELEMENT TYPE S3 WILL BE 
          REFERRED TO AS S3R FROM HERE ON
  *Element, type=S4R
  *Element, type=S3

 ***NOTE: ELEMENT TYPES S3 AND S3R ARE IDENTICAL. ELEMENT TYPE S3 WILL BE 
          REFERRED TO AS S3R FROM HERE ON
  *Element, type=S4R
  *Element, type=S3

 ***NOTE: ELEMENT TYPES S3 AND S3R ARE IDENTICAL. ELEMENT TYPE S3 WILL BE 
          REFERRED TO AS S3R FROM HERE ON
  *Element, type=S4R
  *Element, type=S3

 ***NOTE: ELEMENT TYPES S3 AND S3R ARE IDENTICAL. ELEMENT TYPE S3 WILL BE 
          REFERRED TO AS S3R FROM HERE ON
  *Element, type=S4R
  *Element, type=S3

 ***NOTE: ELEMENT TYPES S3 AND S3R ARE IDENTICAL. ELEMENT TYPE S3 WILL BE 
          REFERRED TO AS S3R FROM HERE ON
  *Element, type=S4R
  *Element, type=S3

 ***NOTE: ELEMENT TYPES S3 AND S3R ARE IDENTICAL. ELEMENT TYPE S3 WILL BE 
          REFERRED TO AS S3R FROM HERE ON
  *Element, type=S4R
  *Element, type=S3

 ***NOTE: ELEMENT TYPES S3 AND S3R ARE IDENTICAL. ELEMENT TYPE S3 WILL BE 
          REFERRED TO AS S3R FROM HERE ON
  *Element, type=S4R
  *Element, type=S3

 ***NOTE: ELEMENT TYPES S3 AND S3R ARE IDENTICAL. ELEMENT TYPE S3 WILL BE 
          REFERRED TO AS S3R FROM HERE ON
  *Element, type=S4R
  *Element, type=S3

 ***NOTE: ELEMENT TYPES S3 AND S3R ARE IDENTICAL. ELEMENT TYPE S3 WILL BE 
          REFERRED TO AS S3R FROM HERE ON
  *Element, type=S4R
  *Element, type=S3

 ***NOTE: ELEMENT TYPES S3 AND S3R ARE IDENTICAL. ELEMENT TYPE S3 WILL BE 
          REFERRED TO AS S3R FROM HERE ON
  *Element, type=S4R
  *Element, type=S3

 ***NOTE: ELEMENT TYPES S3 AND S3R ARE IDENTICAL. ELEMENT TYPE S3 WILL BE 
          REFERRED TO AS S3R FROM HERE ON
  *Element, type=S4R
  *Element, type=S3

 ***NOTE: ELEMENT TYPES S3 AND S3R ARE IDENTICAL. ELEMENT TYPE S3 WILL BE 
          REFERRED TO AS S3R FROM HERE ON
  *Element, type=S4R
  *Element, type=S3

 ***NOTE: ELEMENT TYPES S3 AND S3R ARE IDENTICAL. ELEMENT TYPE S3 WILL BE 
          REFERRED TO AS S3R FROM HERE ON
  *Element, type=S4R
  *Element, type=S3

 ***NOTE: ELEMENT TYPES S3 AND S3R ARE IDENTICAL. ELEMENT TYPE S3 WILL BE 
          REFERRED TO AS S3R FROM HERE ON
  *Element, type=S4R
  *Element, type=S3

 ***NOTE: ELEMENT TYPES S3 AND S3R ARE IDENTICAL. ELEMENT TYPE S3 WILL BE 
          REFERRED TO AS S3R FROM HERE ON
  *Element, type=S4R
  *Element, type=S3

 ***NOTE: ELEMENT TYPES S3 AND S3R ARE IDENTICAL. ELEMENT TYPE S3 WILL BE 
          REFERRED TO AS S3R FROM HERE ON
  *Element, type=S4R
  *Element, type=S3

 ***NOTE: ELEMENT TYPES S3 AND S3R ARE IDENTICAL. ELEMENT TYPE S3 WILL BE 
          REFERRED TO AS S3R FROM HERE ON
  *Element, type=S4R
  *Element, type=S3

 ***NOTE: ELEMENT TYPES S3 AND S3R ARE IDENTICAL. ELEMENT TYPE S3 WILL BE 
          REFERRED TO AS S3R FROM HERE ON
  *Element, type=S4R
  *Element, type=S3

 ***NOTE: ELEMENT TYPES S3 AND S3R ARE IDENTICAL. ELEMENT TYPE S3 WILL BE 
          REFERRED TO AS S3R FROM HERE ON
  *Element, type=S4R
  *Element, type=S3

 ***NOTE: ELEMENT TYPES S3 AND S3R ARE IDENTICAL. ELEMENT TYPE S3 WILL BE 
          REFERRED TO AS S3R FROM HERE ON
  *Element, type=S4R
  *Element, type=S3

 ***NOTE: ELEMENT TYPES S3 AND S3R ARE IDENTICAL. ELEMENT TYPE S3 WILL BE 
          REFERRED TO AS S3R FROM HERE ON
  *Element, type=S4R
  *Element, type=S3

 ***NOTE: ELEMENT TYPES S3 AND S3R ARE IDENTICAL. ELEMENT TYPE S3 WILL BE 
          REFERRED TO AS S3R FROM HERE ON
  *Element, type=S4R
  *Element, type=S3

 ***NOTE: ELEMENT TYPES S3 AND S3R ARE IDENTICAL. ELEMENT TYPE S3 WILL BE 
          REFERRED TO AS S3R FROM HERE ON
  *Element, type=S4R
  *Element, type=S3

 ***NOTE: ELEMENT TYPES S3 AND S3R ARE IDENTICAL. ELEMENT TYPE S3 WILL BE 
          REFERRED TO AS S3R FROM HERE ON
  *Element, type=S4R
  *Element, type=S3

 ***NOTE: ELEMENT TYPES S3 AND S3R ARE IDENTICAL. ELEMENT TYPE S3 WILL BE 
          REFERRED TO AS S3R FROM HERE ON
  *Element, type=S4R
  *Element, type=S3

 ***NOTE: ELEMENT TYPES S3 AND S3R ARE IDENTICAL. ELEMENT TYPE S3 WILL BE 
          REFERRED TO AS S3R FROM HERE ON
  *Element, type=S4R
  *Element, type=S3

 ***NOTE: ELEMENT TYPES S3 AND S3R ARE IDENTICAL. ELEMENT TYPE S3 WILL BE 
          REFERRED TO AS S3R FROM HERE ON
  *Element, type=S4R
  *Element, type=S3

 ***NOTE: ELEMENT TYPES S3 AND S3R ARE IDENTICAL. ELEMENT TYPE S3 WILL BE 
          REFERRED TO AS S3R FROM HERE ON
  *Element, type=S4R
  *Element, type=S3

 ***NOTE: ELEMENT TYPES S3 AND S3R ARE IDENTICAL. ELEMENT TYPE S3 WILL BE 
          REFERRED TO AS S3R FROM HERE ON
  *Element, type=S4R
  *Element, type=S3

 ***NOTE: ELEMENT TYPES S3 AND S3R ARE IDENTICAL. ELEMENT TYPE S3 WILL BE 
          REFERRED TO AS S3R FROM HERE ON
  *Element, type=S4R
  *Element, type=S3

 ***NOTE: ELEMENT TYPES S3 AND S3R ARE IDENTICAL. ELEMENT TYPE S3 WILL BE 
          REFERRED TO AS S3R FROM HERE ON
  *Element, type=S4R
  *Element, type=S3

 ***NOTE: ELEMENT TYPES S3 AND S3R ARE IDENTICAL. ELEMENT TYPE S3 WILL BE 
          REFERRED TO AS S3R FROM HERE ON
  *Element, type=S4R
  *Element, type=S3

 ***NOTE: ELEMENT TYPES S3 AND S3R ARE IDENTICAL. ELEMENT TYPE S3 WILL BE 
          REFERRED TO AS S3R FROM HERE ON
  *Element, type=S4R
  *Element, type=S3

 ***NOTE: ELEMENT TYPES S3 AND S3R ARE IDENTICAL. ELEMENT TYPE S3 WILL BE 
          REFERRED TO AS S3R FROM HERE ON
  *Element, type=S4R
  *Element, type=S3

 ***NOTE: ELEMENT TYPES S3 AND S3R ARE IDENTICAL. ELEMENT TYPE S3 WILL BE 
          REFERRED TO AS S3R FROM HERE ON
  *Element, type=S4R
  *Element, type=S3

 ***NOTE: ELEMENT TYPES S3 AND S3R ARE IDENTICAL. ELEMENT TYPE S3 WILL BE 
          REFERRED TO AS S3R FROM HERE ON
  *Element, type=S4R
  *Element, type=S3

 ***NOTE: ELEMENT TYPES S3 AND S3R ARE IDENTICAL. ELEMENT TYPE S3 WILL BE 
          REFERRED TO AS S3R FROM HERE ON
  *Element, type=S4R
  *Element, type=S3

 ***NOTE: ELEMENT TYPES S3 AND S3R ARE IDENTICAL. ELEMENT TYPE S3 WILL BE 
          REFERRED TO AS S3R FROM HERE ON
  *Element, type=S4R
  *Element, type=S3

 ***NOTE: ELEMENT TYPES S3 AND S3R ARE IDENTICAL. ELEMENT TYPE S3 WILL BE 
          REFERRED TO AS S3R FROM HERE ON
  *Element, type=S4R
  *Element, type=S3

 ***NOTE: ELEMENT TYPES S3 AND S3R ARE IDENTICAL. ELEMENT TYPE S3 WILL BE 
          REFERRED TO AS S3R FROM HERE ON
  *Element, type=S4R
  *Element, type=S3

 ***NOTE: ELEMENT TYPES S3 AND S3R ARE IDENTICAL. ELEMENT TYPE S3 WILL BE 
          REFERRED TO AS S3R FROM HERE ON
  *Element, type=S4R
  *Element, type=S3

 ***NOTE: ELEMENT TYPES S3 AND S3R ARE IDENTICAL. ELEMENT TYPE S3 WILL BE 
          REFERRED TO AS S3R FROM HERE ON
  *Element, type=S4R
  *Element, type=S3

 ***NOTE: ELEMENT TYPES S3 AND S3R ARE IDENTICAL. ELEMENT TYPE S3 WILL BE 
          REFERRED TO AS S3R FROM HERE ON
  *Element, type=S4R
  *Element, type=S3

 ***NOTE: ELEMENT TYPES S3 AND S3R ARE IDENTICAL. ELEMENT TYPE S3 WILL BE 
          REFERRED TO AS S3R FROM HERE ON
  *Element, type=S4R
  *Element, type=S3

 ***NOTE: ELEMENT TYPES S3 AND S3R ARE IDENTICAL. ELEMENT TYPE S3 WILL BE 
          REFERRED TO AS S3R FROM HERE ON
  *Element, type=S4R
  *Element, type=S3

 ***NOTE: ELEMENT TYPES S3 AND S3R ARE IDENTICAL. ELEMENT TYPE S3 WILL BE 
          REFERRED TO AS S3R FROM HERE ON
  *Element, type=S4R
  *Element, type=S3

 ***NOTE: ELEMENT TYPES S3 AND S3R ARE IDENTICAL. ELEMENT TYPE S3 WILL BE 
          REFERRED TO AS S3R FROM HERE ON
  *Element, type=S4R
  *Element, type=S3

 ***NOTE: ELEMENT TYPES S3 AND S3R ARE IDENTICAL. ELEMENT TYPE S3 WILL BE 
          REFERRED TO AS S3R FROM HERE ON
  *Element, type=S4R
  *Element, type=S3

 ***NOTE: ELEMENT TYPES S3 AND S3R ARE IDENTICAL. ELEMENT TYPE S3 WILL BE 
          REFERRED TO AS S3R FROM HERE ON
  *Element, type=S4R
  *Element, type=S3

 ***NOTE: ELEMENT TYPES S3 AND S3R ARE IDENTICAL. ELEMENT TYPE S3 WILL BE 
          REFERRED TO AS S3R FROM HERE ON
  *Element, type=S4R
  *Element, type=S3

 ***NOTE: ELEMENT TYPES S3 AND S3R ARE IDENTICAL. ELEMENT TYPE S3 WILL BE 
          REFERRED TO AS S3R FROM HERE ON
  *Element, type=S4R
  *Element, type=S3

 ***NOTE: ELEMENT TYPES S3 AND S3R ARE IDENTICAL. ELEMENT TYPE S3 WILL BE 
          REFERRED TO AS S3R FROM HERE ON
  *Element, type=S4R
  *Element, type=S3

 ***NOTE: ELEMENT TYPES S3 AND S3R ARE IDENTICAL. ELEMENT TYPE S3 WILL BE 
          REFERRED TO AS S3R FROM HERE ON
  *Element, type=S4R
  *Element, type=S3

 ***NOTE: ELEMENT TYPES S3 AND S3R ARE IDENTICAL. ELEMENT TYPE S3 WILL BE 
          REFERRED TO AS S3R FROM HERE ON
  *Element, type=S4R
  *Element, type=S3

 ***NOTE: ELEMENT TYPES S3 AND S3R ARE IDENTICAL. ELEMENT TYPE S3 WILL BE 
          REFERRED TO AS S3R FROM HERE ON
  *Element, type=S4R
  *Element, type=S3

 ***NOTE: ELEMENT TYPES S3 AND S3R ARE IDENTICAL. ELEMENT TYPE S3 WILL BE 
          REFERRED TO AS S3R FROM HERE ON
  *Element, type=S4R
  *Element, type=S3

 ***NOTE: ELEMENT TYPES S3 AND S3R ARE IDENTICAL. ELEMENT TYPE S3 WILL BE 
          REFERRED TO AS S3R FROM HERE ON
  *Element, type=S4R
  *Element, type=S3

 ***NOTE: ELEMENT TYPES S3 AND S3R ARE IDENTICAL. ELEMENT TYPE S3 WILL BE 
          REFERRED TO AS S3R FROM HERE ON
  *Element, type=S4R
  *Element, type=S3

 ***NOTE: ELEMENT TYPES S3 AND S3R ARE IDENTICAL. ELEMENT TYPE S3 WILL BE 
          REFERRED TO AS S3R FROM HERE ON
  *Element, type=S4R
  *Element, type=S3

 ***NOTE: ELEMENT TYPES S3 AND S3R ARE IDENTICAL. ELEMENT TYPE S3 WILL BE 
          REFERRED TO AS S3R FROM HERE ON
  *Element, type=S4R
  *Element, type=S3

 ***NOTE: ELEMENT TYPES S3 AND S3R ARE IDENTICAL. ELEMENT TYPE S3 WILL BE 
          REFERRED TO AS S3R FROM HERE ON
  *Element, type=S4R
  *Element, type=S3

 ***NOTE: ELEMENT TYPES S3 AND S3R ARE IDENTICAL. ELEMENT TYPE S3 WILL BE 
          REFERRED TO AS S3R FROM HERE ON
  *Element, type=S4R
  *Element, type=S3

 ***NOTE: ELEMENT TYPES S3 AND S3R ARE IDENTICAL. ELEMENT TYPE S3 WILL BE 
          REFERRED TO AS S3R FROM HERE ON
  *Element, type=S4R
  *Element, type=S3

 ***NOTE: ELEMENT TYPES S3 AND S3R ARE IDENTICAL. ELEMENT TYPE S3 WILL BE 
          REFERRED TO AS S3R FROM HERE ON
  *Element, type=S4R
  *Element, type=S3

 ***NOTE: ELEMENT TYPES S3 AND S3R ARE IDENTICAL. ELEMENT TYPE S3 WILL BE 
          REFERRED TO AS S3R FROM HERE ON
  *Element, type=S4R
  *Element, type=S3

 ***NOTE: ELEMENT TYPES S3 AND S3R ARE IDENTICAL. ELEMENT TYPE S3 WILL BE 
          REFERRED TO AS S3R FROM HERE ON
  *Element, type=S4R
  *Nset, nset=ASSEMBLY_REPETATIVE_FRAME-1-LIN-2-1_COUPLING_1_P
  *Nset, nset=ASSEMBLY_REPETATIVE_FRAME-1-LIN-2-1_COUPLING_2_P
  *Nset, nset=ASSEMBLY_REPETATIVE_FRAME-1-LIN-2-1_COUPLING_3_P
  *Nset, nset=ASSEMBLY_REPETATIVE_FRAME-1-LIN-2-1_COUPLING_4_P
  *Nset, nset=ASSEMBLY_REPETATIVE_FRAME-1-LIN-2-1_COUPLING_4_R
  *Nset, nset=ASSEMBLY_REPETATIVE_FRAME-1-LIN-2-1_COUPLING_5_P
  *Nset, nset=ASSEMBLY_REPETATIVE_FRAME-1-LIN-2-1_COUPLING_5_R
  *Nset, nset=ASSEMBLY_REPETATIVE_FRAME-1-LIN-2-1_COUPLING_6_R
  *Nset, nset=ASSEMBLY_REPETATIVE_FRAME-1-LIN-2-1_COUPLING_7_P
  *Nset, nset=ASSEMBLY_REPETATIVE_FRAME-1-LIN-2-1_COUPLING_7_R
  *Nset, nset=ASSEMBLY_REPETATIVE_FRAME-1-LIN-2-1_COUPLING_8_P
  *Nset, nset=ASSEMBLY_REPETATIVE_FRAME-1-LIN-2-1_COUPLING_8_R
  *Nset, nset=ASSEMBLY_REPETATIVE_FRAME-1-LIN-2-1_COUPLING_9_R
  *Nset, nset=ASSEMBLY_REPETATIVE_FRAME-1-LIN-2-1_SECTION_10MM_SHELL
  *Nset, nset=ASSEMBLY_REPETATIVE_FRAME-1-LIN-2-1_SECTION_12MM_SHELL
  *Nset, nset=ASSEMBLY_REPETATIVE_FRAME-1-LIN-2-1_SECTION_15MM_SHELL
  *Nset, nset=ASSEMBLY_REPETATIVE_FRAME-1-LIN-2-1_SECTION_190_INSULATOR
  *Nset, nset=ASSEMBLY_REPETATIVE_FRAME-1-LIN-2-1_SECTION_20MM_SHELL
  *Nset, nset=ASSEMBLY_REPETATIVE_FRAME-1-LIN-2-1_SECTION_2MM_SHELL
  *Nset, nset=ASSEMBLY_REPETATIVE_FRAME-1-LIN-2-1_SECTION_300_ARRESTER
  *Nset, nset=ASSEMBLY_REPETATIVE_FRAME-1-LIN-2-1_SECTION_30_INSULATOR
  *Nset, nset=ASSEMBLY_REPETATIVE_FRAME-1-LIN-2-1_SECTION_34MM_SHELL
  *Nset, nset=ASSEMBLY_REPETATIVE_FRAME-1-LIN-2-1_SECTION_46MM_SHELL
  *Nset, nset=ASSEMBLY_REPETATIVE_FRAME-1-LIN-2-1_SECTION_8MM_SHELL
  *Nset, nset=ASSEMBLY_REPETATIVE_FRAME-1-LIN-2-1_TIE_10_M
  *Nset, nset=ASSEMBLY_REPETATIVE_FRAME-1-LIN-2-1_TIE_10_S
  *Nset, nset=ASSEMBLY_REPETATIVE_FRAME-1-LIN-2-1_TIE_11_M
  *Nset, nset=ASSEMBLY_REPETATIVE_FRAME-1-LIN-2-1_TIE_11_S
  *Nset, nset=ASSEMBLY_REPETATIVE_FRAME-1-LIN-2-1_TIE_12_M
  *Nset, nset=ASSEMBLY_REPETATIVE_FRAME-1-LIN-2-1_TIE_12_S
  *Nset, nset=ASSEMBLY_REPETATIVE_FRAME-1-LIN-2-1_TIE_13_M
  *Nset, nset=ASSEMBLY_REPETATIVE_FRAME-1-LIN-2-1_TIE_13_S
  *Nset, nset=ASSEMBLY_REPETATIVE_FRAME-1-LIN-2-1_TIE_14_M
  *Nset, nset=ASSEMBLY_REPETATIVE_FRAME-1-LIN-2-1_TIE_14_S
  *Nset, nset=ASSEMBLY_REPETATIVE_FRAME-1-LIN-2-1_TIE_15_M
  *Nset, nset=ASSEMBLY_REPETATIVE_FRAME-1-LIN-2-1_TIE_15_S
  *Nset, nset=ASSEMBLY_REPETATIVE_FRAME-1-LIN-2-1_TIE_1_M
  *Nset, nset=ASSEMBLY_REPETATIVE_FRAME-1-LIN-2-1_TIE_2_S
  *Nset, nset=ASSEMBLY_REPETATIVE_FRAME-1-LIN-2-1_TIE_3_M
  *Nset, nset=ASSEMBLY_REPETATIVE_FRAME-1-LIN-2-1_TIE_3_S
  *Nset, nset=ASSEMBLY_REPETATIVE_FRAME-1-LIN-2-1_TIE_4_M
  *Nset, nset=ASSEMBLY_REPETATIVE_FRAME-1-LIN-2-1_TIE_4_S
  *Nset, nset=ASSEMBLY_REPETATIVE_FRAME-1-LIN-2-1_TIE_5_M
  *Nset, nset=ASSEMBLY_REPETATIVE_FRAME-1-LIN-2-1_TIE_5_S
  *Nset, nset=ASSEMBLY_REPETATIVE_FRAME-1-LIN-2-1_TIE_6_M
  *Nset, nset=ASSEMBLY_REPETATIVE_FRAME-1-LIN-2-1_TIE_6_S
  *Nset, nset=ASSEMBLY_REPETATIVE_FRAME-1-LIN-2-1_TIE_7_M
  *Nset, nset=ASSEMBLY_REPETATIVE_FRAME-1-LIN-2-1_TIE_7_S
  *Nset, nset=ASSEMBLY_REPETATIVE_FRAME-1-LIN-2-1_TIE_8_M
  *Nset, nset=ASSEMBLY_REPETATIVE_FRAME-1-LIN-2-1_TIE_8_S
  *Nset, nset=ASSEMBLY_REPETATIVE_FRAME-1-LIN-2-1_TIE_9_M
  *Nset, nset=ASSEMBLY_REPETATIVE_FRAME-1-LIN-2-1_TIE_9_S
  *Nset, nset=ASSEMBLY_REPETATIVE_FRAME-1-LIN-2-1__PICKEDSET102
  *Nset, nset=ASSEMBLY_REPETATIVE_FRAME-1-LIN-2-1__PICKEDSET103
  *Elset, elset=ASSEMBLY_REPETATIVE_FRAME-1-LIN-2-1_COUPLING_4_R
  *Elset, elset=ASSEMBLY_REPETATIVE_FRAME-1-LIN-2-1_COUPLING_5_R
  *Elset, elset=ASSEMBLY_REPETATIVE_FRAME-1-LIN-2-1_COUPLING_6_R
  *Elset, elset=ASSEMBLY_REPETATIVE_FRAME-1-LIN-2-1_COUPLING_7_R
  *Elset, elset=ASSEMBLY_REPETATIVE_FRAME-1-LIN-2-1_COUPLING_8_R
  *Elset, elset=ASSEMBLY_REPETATIVE_FRAME-1-LIN-2-1_COUPLING_9_R
  *Elset, elset=ASSEMBLY_REPETATIVE_FRAME-1-LIN-2-1_SECTION_10MM_SHELL
  *Elset, elset=ASSEMBLY_REPETATIVE_FRAME-1-LIN-2-1_SECTION_12MM_SHELL
  *Elset, elset=ASSEMBLY_REPETATIVE_FRAME-1-LIN-2-1_SECTION_15MM_SHELL
  *Elset, elset=ASSEMBLY_REPETATIVE_FRAME-1-LIN-2-1_SECTION_190_INSULATOR
  *Elset, elset=ASSEMBLY_REPETATIVE_FRAME-1-LIN-2-1_SECTION_20MM_SHELL
  *Elset, elset=ASSEMBLY_REPETATIVE_FRAME-1-LIN-2-1_SECTION_2MM_SHELL
  *Elset, elset=ASSEMBLY_REPETATIVE_FRAME-1-LIN-2-1_SECTION_300_ARRESTER
  *Elset, elset=ASSEMBLY_REPETATIVE_FRAME-1-LIN-2-1_SECTION_30_INSULATOR
  *Elset, elset=ASSEMBLY_REPETATIVE_FRAME-1-LIN-2-1_SECTION_34MM_SHELL
  *Elset, elset=ASSEMBLY_REPETATIVE_FRAME-1-LIN-2-1_SECTION_46MM_SHELL
  *Elset, elset=ASSEMBLY_REPETATIVE_FRAME-1-LIN-2-1_SECTION_8MM_SHELL
  *Elset, elset=ASSEMBLY_REPETATIVE_FRAME-1-LIN-2-1_TIE_10_M
  *Elset, elset=ASSEMBLY_REPETATIVE_FRAME-1-LIN-2-1_TIE_10_S
  *Elset, elset=ASSEMBLY_REPETATIVE_FRAME-1-LIN-2-1_TIE_11_M
  *Elset, elset=ASSEMBLY_REPETATIVE_FRAME-1-LIN-2-1_TIE_11_S
  *Elset, elset=ASSEMBLY_REPETATIVE_FRAME-1-LIN-2-1_TIE_12_M
  *Elset, elset=ASSEMBLY_REPETATIVE_FRAME-1-LIN-2-1_TIE_12_S
  *Elset, elset=ASSEMBLY_REPETATIVE_FRAME-1-LIN-2-1_TIE_13_M
  *Elset, elset=ASSEMBLY_REPETATIVE_FRAME-1-LIN-2-1_TIE_13_S
  *Elset, elset=ASSEMBLY_REPETATIVE_FRAME-1-LIN-2-1_TIE_14_M
  *Elset, elset=ASSEMBLY_REPETATIVE_FRAME-1-LIN-2-1_TIE_14_S
  *Elset, elset=ASSEMBLY_REPETATIVE_FRAME-1-LIN-2-1_TIE_15_M
  *Elset, elset=ASSEMBLY_REPETATIVE_FRAME-1-LIN-2-1_TIE_15_S
  *Elset, elset=ASSEMBLY_REPETATIVE_FRAME-1-LIN-2-1_TIE_1_M
  *Elset, elset=ASSEMBLY_REPETATIVE_FRAME-1-LIN-2-1_TIE_2_S
  *Elset, elset=ASSEMBLY_REPETATIVE_FRAME-1-LIN-2-1_TIE_3_M
  *Elset, elset=ASSEMBLY_REPETATIVE_FRAME-1-LIN-2-1_TIE_3_S
  *Elset, elset=ASSEMBLY_REPETATIVE_FRAME-1-LIN-2-1_TIE_4_M
  *Elset, elset=ASSEMBLY_REPETATIVE_FRAME-1-LIN-2-1_TIE_4_S
  *Elset, elset=ASSEMBLY_REPETATIVE_FRAME-1-LIN-2-1_TIE_5_M
  *Elset, elset=ASSEMBLY_REPETATIVE_FRAME-1-LIN-2-1_TIE_5_S
  *Elset, elset=ASSEMBLY_REPETATIVE_FRAME-1-LIN-2-1_TIE_6_M
  *Elset, elset=ASSEMBLY_REPETATIVE_FRAME-1-LIN-2-1_TIE_6_S
  *Elset, elset=ASSEMBLY_REPETATIVE_FRAME-1-LIN-2-1_TIE_7_M
  *Elset, elset=ASSEMBLY_REPETATIVE_FRAME-1-LIN-2-1_TIE_7_S
  *Elset, elset=ASSEMBLY_REPETATIVE_FRAME-1-LIN-2-1_TIE_8_M
  *Elset, elset=ASSEMBLY_REPETATIVE_FRAME-1-LIN-2-1_TIE_8_S
  *Elset, elset=ASSEMBLY_REPETATIVE_FRAME-1-LIN-2-1_TIE_9_M
  *Elset, elset=ASSEMBLY_REPETATIVE_FRAME-1-LIN-2-1_TIE_9_S
  *Elset, elset=ASSEMBLY_REPETATIVE_FRAME-1-LIN-2-1__PICKEDSET102
  *Elset, elset=ASSEMBLY_REPETATIVE_FRAME-1-LIN-2-1__PICKEDSET103
  *Node
  *Element, type=S4R
  *Element, type=B31
  *Element, type=S4R
  *Element, type=S3

 ***NOTE: ELEMENT TYPES S3 AND S3R ARE IDENTICAL. ELEMENT TYPE S3 WILL BE 
          REFERRED TO AS S3R FROM HERE ON
  *Element, type=S4R
  *Element, type=S3

 ***NOTE: ELEMENT TYPES S3 AND S3R ARE IDENTICAL. ELEMENT TYPE S3 WILL BE 
          REFERRED TO AS S3R FROM HERE ON
  *Element, type=S4R
  *Element, type=S3

 ***NOTE: ELEMENT TYPES S3 AND S3R ARE IDENTICAL. ELEMENT TYPE S3 WILL BE 
          REFERRED TO AS S3R FROM HERE ON
  *Element, type=S4R
  *Element, type=S3

 ***NOTE: ELEMENT TYPES S3 AND S3R ARE IDENTICAL. ELEMENT TYPE S3 WILL BE 
          REFERRED TO AS S3R FROM HERE ON
  *Element, type=S4R
  *Element, type=S3

 ***NOTE: ELEMENT TYPES S3 AND S3R ARE IDENTICAL. ELEMENT TYPE S3 WILL BE 
          REFERRED TO AS S3R FROM HERE ON
  *Element, type=S4R
  *Element, type=S3

 ***NOTE: ELEMENT TYPES S3 AND S3R ARE IDENTICAL. ELEMENT TYPE S3 WILL BE 
          REFERRED TO AS S3R FROM HERE ON
  *Element, type=S4R
  *Element, type=S3

 ***NOTE: ELEMENT TYPES S3 AND S3R ARE IDENTICAL. ELEMENT TYPE S3 WILL BE 
          REFERRED TO AS S3R FROM HERE ON
  *Element, type=S4R
  *Element, type=S3

 ***NOTE: ELEMENT TYPES S3 AND S3R ARE IDENTICAL. ELEMENT TYPE S3 WILL BE 
          REFERRED TO AS S3R FROM HERE ON
  *Element, type=S4R
  *Element, type=S3

 ***NOTE: ELEMENT TYPES S3 AND S3R ARE IDENTICAL. ELEMENT TYPE S3 WILL BE 
          REFERRED TO AS S3R FROM HERE ON
  *Element, type=S4R
  *Element, type=S3

 ***NOTE: ELEMENT TYPES S3 AND S3R ARE IDENTICAL. ELEMENT TYPE S3 WILL BE 
          REFERRED TO AS S3R FROM HERE ON
  *Element, type=S4R
  *Element, type=S3

 ***NOTE: ELEMENT TYPES S3 AND S3R ARE IDENTICAL. ELEMENT TYPE S3 WILL BE 
          REFERRED TO AS S3R FROM HERE ON
  *Element, type=S4R
  *Element, type=S3

 ***NOTE: ELEMENT TYPES S3 AND S3R ARE IDENTICAL. ELEMENT TYPE S3 WILL BE 
          REFERRED TO AS S3R FROM HERE ON
  *Element, type=S4R
  *Element, type=S3

 ***NOTE: ELEMENT TYPES S3 AND S3R ARE IDENTICAL. ELEMENT TYPE S3 WILL BE 
          REFERRED TO AS S3R FROM HERE ON
  *Element, type=S4R
  *Element, type=S3

 ***NOTE: ELEMENT TYPES S3 AND S3R ARE IDENTICAL. ELEMENT TYPE S3 WILL BE 
          REFERRED TO AS S3R FROM HERE ON
  *Element, type=S4R
  *Element, type=S3

 ***NOTE: ELEMENT TYPES S3 AND S3R ARE IDENTICAL. ELEMENT TYPE S3 WILL BE 
          REFERRED TO AS S3R FROM HERE ON
  *Element, type=S4R
  *Element, type=S3

 ***NOTE: ELEMENT TYPES S3 AND S3R ARE IDENTICAL. ELEMENT TYPE S3 WILL BE 
          REFERRED TO AS S3R FROM HERE ON
  *Element, type=S4R
  *Element, type=S3

 ***NOTE: ELEMENT TYPES S3 AND S3R ARE IDENTICAL. ELEMENT TYPE S3 WILL BE 
          REFERRED TO AS S3R FROM HERE ON
  *Element, type=S4R
  *Element, type=S3

 ***NOTE: ELEMENT TYPES S3 AND S3R ARE IDENTICAL. ELEMENT TYPE S3 WILL BE 
          REFERRED TO AS S3R FROM HERE ON
  *Element, type=S4R
  *Element, type=S3

 ***NOTE: ELEMENT TYPES S3 AND S3R ARE IDENTICAL. ELEMENT TYPE S3 WILL BE 
          REFERRED TO AS S3R FROM HERE ON
  *Element, type=S4R
  *Element, type=S3

 ***NOTE: ELEMENT TYPES S3 AND S3R ARE IDENTICAL. ELEMENT TYPE S3 WILL BE 
          REFERRED TO AS S3R FROM HERE ON
  *Element, type=S4R
  *Element, type=S3

 ***NOTE: ELEMENT TYPES S3 AND S3R ARE IDENTICAL. ELEMENT TYPE S3 WILL BE 
          REFERRED TO AS S3R FROM HERE ON
  *Element, type=S4R
  *Element, type=S3

 ***NOTE: ELEMENT TYPES S3 AND S3R ARE IDENTICAL. ELEMENT TYPE S3 WILL BE 
          REFERRED TO AS S3R FROM HERE ON
  *Element, type=S4R
  *Element, type=S3

 ***NOTE: ELEMENT TYPES S3 AND S3R ARE IDENTICAL. ELEMENT TYPE S3 WILL BE 
          REFERRED TO AS S3R FROM HERE ON
  *Element, type=S4R
  *Element, type=S3

 ***NOTE: ELEMENT TYPES S3 AND S3R ARE IDENTICAL. ELEMENT TYPE S3 WILL BE 
          REFERRED TO AS S3R FROM HERE ON
  *Element, type=S4R
  *Element, type=S3

 ***NOTE: ELEMENT TYPES S3 AND S3R ARE IDENTICAL. ELEMENT TYPE S3 WILL BE 
          REFERRED TO AS S3R FROM HERE ON
  *Element, type=S4R
  *Element, type=S3

 ***NOTE: ELEMENT TYPES S3 AND S3R ARE IDENTICAL. ELEMENT TYPE S3 WILL BE 
          REFERRED TO AS S3R FROM HERE ON
  *Element, type=S4R
  *Element, type=S3

 ***NOTE: ELEMENT TYPES S3 AND S3R ARE IDENTICAL. ELEMENT TYPE S3 WILL BE 
          REFERRED TO AS S3R FROM HERE ON
  *Element, type=S4R
  *Element, type=S3

 ***NOTE: ELEMENT TYPES S3 AND S3R ARE IDENTICAL. ELEMENT TYPE S3 WILL BE 
          REFERRED TO AS S3R FROM HERE ON
  *Element, type=S4R
  *Element, type=S3

 ***NOTE: ELEMENT TYPES S3 AND S3R ARE IDENTICAL. ELEMENT TYPE S3 WILL BE 
          REFERRED TO AS S3R FROM HERE ON
  *Element, type=S4R
  *Element, type=S3

 ***NOTE: ELEMENT TYPES S3 AND S3R ARE IDENTICAL. ELEMENT TYPE S3 WILL BE 
          REFERRED TO AS S3R FROM HERE ON
  *Element, type=S4R
  *Element, type=S3

 ***NOTE: ELEMENT TYPES S3 AND S3R ARE IDENTICAL. ELEMENT TYPE S3 WILL BE 
          REFERRED TO AS S3R FROM HERE ON
  *Element, type=S4R
  *Element, type=S3

 ***NOTE: ELEMENT TYPES S3 AND S3R ARE IDENTICAL. ELEMENT TYPE S3 WILL BE 
          REFERRED TO AS S3R FROM HERE ON
  *Element, type=S4R
  *Element, type=S3

 ***NOTE: ELEMENT TYPES S3 AND S3R ARE IDENTICAL. ELEMENT TYPE S3 WILL BE 
          REFERRED TO AS S3R FROM HERE ON
  *Element, type=S4R
  *Element, type=S3

 ***NOTE: ELEMENT TYPES S3 AND S3R ARE IDENTICAL. ELEMENT TYPE S3 WILL BE 
          REFERRED TO AS S3R FROM HERE ON
  *Element, type=S4R
  *Element, type=S3

 ***NOTE: ELEMENT TYPES S3 AND S3R ARE IDENTICAL. ELEMENT TYPE S3 WILL BE 
          REFERRED TO AS S3R FROM HERE ON
  *Element, type=S4R
  *Element, type=S3

 ***NOTE: ELEMENT TYPES S3 AND S3R ARE IDENTICAL. ELEMENT TYPE S3 WILL BE 
          REFERRED TO AS S3R FROM HERE ON
  *Element, type=S4R
  *Element, type=S3

 ***NOTE: ELEMENT TYPES S3 AND S3R ARE IDENTICAL. ELEMENT TYPE S3 WILL BE 
          REFERRED TO AS S3R FROM HERE ON
  *Element, type=S4R
  *Element, type=S3

 ***NOTE: ELEMENT TYPES S3 AND S3R ARE IDENTICAL. ELEMENT TYPE S3 WILL BE 
          REFERRED TO AS S3R FROM HERE ON
  *Element, type=S4R
  *Element, type=S3

 ***NOTE: ELEMENT TYPES S3 AND S3R ARE IDENTICAL. ELEMENT TYPE S3 WILL BE 
          REFERRED TO AS S3R FROM HERE ON
  *Element, type=S4R
  *Element, type=S3

 ***NOTE: ELEMENT TYPES S3 AND S3R ARE IDENTICAL. ELEMENT TYPE S3 WILL BE 
          REFERRED TO AS S3R FROM HERE ON
  *Element, type=S4R
  *Element, type=S3

 ***NOTE: ELEMENT TYPES S3 AND S3R ARE IDENTICAL. ELEMENT TYPE S3 WILL BE 
          REFERRED TO AS S3R FROM HERE ON
  *Element, type=S4R
  *Element, type=S3

 ***NOTE: ELEMENT TYPES S3 AND S3R ARE IDENTICAL. ELEMENT TYPE S3 WILL BE 
          REFERRED TO AS S3R FROM HERE ON
  *Element, type=S4R
  *Element, type=S3

 ***NOTE: ELEMENT TYPES S3 AND S3R ARE IDENTICAL. ELEMENT TYPE S3 WILL BE 
          REFERRED TO AS S3R FROM HERE ON
  *Element, type=S4R
  *Element, type=S3

 ***NOTE: ELEMENT TYPES S3 AND S3R ARE IDENTICAL. ELEMENT TYPE S3 WILL BE 
          REFERRED TO AS S3R FROM HERE ON
  *Element, type=S4R
  *Element, type=S3

 ***NOTE: ELEMENT TYPES S3 AND S3R ARE IDENTICAL. ELEMENT TYPE S3 WILL BE 
          REFERRED TO AS S3R FROM HERE ON
  *Element, type=S4R
  *Element, type=S3

 ***NOTE: ELEMENT TYPES S3 AND S3R ARE IDENTICAL. ELEMENT TYPE S3 WILL BE 
          REFERRED TO AS S3R FROM HERE ON
  *Element, type=S4R
  *Element, type=S3

 ***NOTE: ELEMENT TYPES S3 AND S3R ARE IDENTICAL. ELEMENT TYPE S3 WILL BE 
          REFERRED TO AS S3R FROM HERE ON
  *Element, type=S4R
  *Element, type=S3

 ***NOTE: ELEMENT TYPES S3 AND S3R ARE IDENTICAL. ELEMENT TYPE S3 WILL BE 
          REFERRED TO AS S3R FROM HERE ON
  *Element, type=S4R
  *Element, type=S3

 ***NOTE: ELEMENT TYPES S3 AND S3R ARE IDENTICAL. ELEMENT TYPE S3 WILL BE 
          REFERRED TO AS S3R FROM HERE ON
  *Element, type=S4R
  *Element, type=S3

 ***NOTE: ELEMENT TYPES S3 AND S3R ARE IDENTICAL. ELEMENT TYPE S3 WILL BE 
          REFERRED TO AS S3R FROM HERE ON
  *Element, type=S4R
  *Element, type=S3

 ***NOTE: ELEMENT TYPES S3 AND S3R ARE IDENTICAL. ELEMENT TYPE S3 WILL BE 
          REFERRED TO AS S3R FROM HERE ON
  *Element, type=S4R
  *Element, type=S3

 ***NOTE: ELEMENT TYPES S3 AND S3R ARE IDENTICAL. ELEMENT TYPE S3 WILL BE 
          REFERRED TO AS S3R FROM HERE ON
  *Element, type=S4R
  *Element, type=S3

 ***NOTE: ELEMENT TYPES S3 AND S3R ARE IDENTICAL. ELEMENT TYPE S3 WILL BE 
          REFERRED TO AS S3R FROM HERE ON
  *Element, type=S4R
  *Element, type=S3

 ***NOTE: ELEMENT TYPES S3 AND S3R ARE IDENTICAL. ELEMENT TYPE S3 WILL BE 
          REFERRED TO AS S3R FROM HERE ON
  *Element, type=S4R
  *Element, type=S3

 ***NOTE: ELEMENT TYPES S3 AND S3R ARE IDENTICAL. ELEMENT TYPE S3 WILL BE 
          REFERRED TO AS S3R FROM HERE ON
  *Element, type=S4R
  *Element, type=S3

 ***NOTE: ELEMENT TYPES S3 AND S3R ARE IDENTICAL. ELEMENT TYPE S3 WILL BE 
          REFERRED TO AS S3R FROM HERE ON
  *Element, type=S4R
  *Element, type=S3

 ***NOTE: ELEMENT TYPES S3 AND S3R ARE IDENTICAL. ELEMENT TYPE S3 WILL BE 
          REFERRED TO AS S3R FROM HERE ON
  *Element, type=S4R
  *Element, type=S3

 ***NOTE: ELEMENT TYPES S3 AND S3R ARE IDENTICAL. ELEMENT TYPE S3 WILL BE 
          REFERRED TO AS S3R FROM HERE ON
  *Element, type=S4R
  *Element, type=S3

 ***NOTE: ELEMENT TYPES S3 AND S3R ARE IDENTICAL. ELEMENT TYPE S3 WILL BE 
          REFERRED TO AS S3R FROM HERE ON
  *Element, type=S4R
  *Element, type=S3

 ***NOTE: ELEMENT TYPES S3 AND S3R ARE IDENTICAL. ELEMENT TYPE S3 WILL BE 
          REFERRED TO AS S3R FROM HERE ON
  *Element, type=S4R
  *Element, type=S3

 ***NOTE: ELEMENT TYPES S3 AND S3R ARE IDENTICAL. ELEMENT TYPE S3 WILL BE 
          REFERRED TO AS S3R FROM HERE ON
  *Element, type=S4R
  *Element, type=S3

 ***NOTE: ELEMENT TYPES S3 AND S3R ARE IDENTICAL. ELEMENT TYPE S3 WILL BE 
          REFERRED TO AS S3R FROM HERE ON
  *Element, type=S4R
  *Element, type=S3

 ***NOTE: ELEMENT TYPES S3 AND S3R ARE IDENTICAL. ELEMENT TYPE S3 WILL BE 
          REFERRED TO AS S3R FROM HERE ON
  *Element, type=S4R
  *Element, type=S3

 ***NOTE: ELEMENT TYPES S3 AND S3R ARE IDENTICAL. ELEMENT TYPE S3 WILL BE 
          REFERRED TO AS S3R FROM HERE ON
  *Element, type=S4R
  *Element, type=S3

 ***NOTE: ELEMENT TYPES S3 AND S3R ARE IDENTICAL. ELEMENT TYPE S3 WILL BE 
          REFERRED TO AS S3R FROM HERE ON
  *Element, type=S4R
  *Element, type=S3

 ***NOTE: ELEMENT TYPES S3 AND S3R ARE IDENTICAL. ELEMENT TYPE S3 WILL BE 
          REFERRED TO AS S3R FROM HERE ON
  *Element, type=S4R
  *Element, type=S3

 ***NOTE: ELEMENT TYPES S3 AND S3R ARE IDENTICAL. ELEMENT TYPE S3 WILL BE 
          REFERRED TO AS S3R FROM HERE ON
  *Element, type=S4R
  *Element, type=S3

 ***NOTE: ELEMENT TYPES S3 AND S3R ARE IDENTICAL. ELEMENT TYPE S3 WILL BE 
          REFERRED TO AS S3R FROM HERE ON
  *Element, type=S4R
  *Element, type=S3

 ***NOTE: ELEMENT TYPES S3 AND S3R ARE IDENTICAL. ELEMENT TYPE S3 WILL BE 
          REFERRED TO AS S3R FROM HERE ON
  *Element, type=S4R
  *Element, type=S3

 ***NOTE: ELEMENT TYPES S3 AND S3R ARE IDENTICAL. ELEMENT TYPE S3 WILL BE 
          REFERRED TO AS S3R FROM HERE ON
  *Element, type=S4R
  *Element, type=S3

 ***NOTE: ELEMENT TYPES S3 AND S3R ARE IDENTICAL. ELEMENT TYPE S3 WILL BE 
          REFERRED TO AS S3R FROM HERE ON
  *Element, type=S4R
  *Element, type=S3

 ***NOTE: ELEMENT TYPES S3 AND S3R ARE IDENTICAL. ELEMENT TYPE S3 WILL BE 
          REFERRED TO AS S3R FROM HERE ON
  *Element, type=S4R
  *Element, type=S3

 ***NOTE: ELEMENT TYPES S3 AND S3R ARE IDENTICAL. ELEMENT TYPE S3 WILL BE 
          REFERRED TO AS S3R FROM HERE ON
  *Element, type=S4R
  *Element, type=S3

 ***NOTE: ELEMENT TYPES S3 AND S3R ARE IDENTICAL. ELEMENT TYPE S3 WILL BE 
          REFERRED TO AS S3R FROM HERE ON
  *Element, type=S4R
  *Element, type=S3

 ***NOTE: ELEMENT TYPES S3 AND S3R ARE IDENTICAL. ELEMENT TYPE S3 WILL BE 
          REFERRED TO AS S3R FROM HERE ON
  *Element, type=S4R
  *Element, type=S3

 ***NOTE: ELEMENT TYPES S3 AND S3R ARE IDENTICAL. ELEMENT TYPE S3 WILL BE 
          REFERRED TO AS S3R FROM HERE ON
  *Element, type=S4R
  *Element, type=S3

 ***NOTE: ELEMENT TYPES S3 AND S3R ARE IDENTICAL. ELEMENT TYPE S3 WILL BE 
          REFERRED TO AS S3R FROM HERE ON
  *Element, type=S4R
  *Element, type=S3

 ***NOTE: ELEMENT TYPES S3 AND S3R ARE IDENTICAL. ELEMENT TYPE S3 WILL BE 
          REFERRED TO AS S3R FROM HERE ON
  *Element, type=S4R
[...]
      55      1.40673E-03   -1.98349E-02     1.7277         76.750         33.333         73.334    
      56     -2.01916E-03   -1.35012E-03   -9.10050E-02     1096.8         17.042        -10.154    
      57      1.49383E-02    0.38531       -1.17956E-02    -1372.0         29.569         908.75    
      58      7.80807E-03   -6.93878E-02   -7.92776E-03     208.34         18.172        -212.04    
      59     -4.35231E-02    2.27697E-02    8.35746E-04    -1009.9         109.71        -107.64    
      60      4.00776E-02   -7.87505E-02    2.45572E-02    -415.07         224.66        -653.99    
      61     -2.54709E-02    0.43036       -4.45954E-03    -1181.8        -55.075         702.18    
      62     -1.97546E-03   -9.65842E-02    8.85408E-02     233.93        -19.978        -186.75    
      63     -3.33232E-02   -0.27327        0.39141         649.68        -186.81        -557.50    
      64      2.03529E-02    0.16963        0.61356         304.81        -129.59         421.56    
      65     -1.33930E-02    0.82791       -0.13297        -2122.3        -41.727         1404.9    
      66     -2.96221E-02   -0.12389        3.90354E-02     226.42        -83.063        -312.91    
      67      5.64573E-03   -0.18647       -1.63286E-02     210.96         1.6363        -393.21    
      68      1.29679E-02   -4.61239E-02   -0.70382         164.81         12.816        -154.18    
      69     -0.13414       -0.15821       -4.64713E-02     517.02        -320.07        -339.70    
      70     -7.62818E-02   -0.18527        1.54874E-02     593.47        -190.22        -301.70    
      71     -3.19495E-02   -0.24873       -0.21139         734.35        -227.19        -419.64    
      72     -3.88897E-02   -2.88044E-02   -0.38553         836.90        -377.81         1.9014    
      73     -5.19922E-02   -0.31313        3.77952E-02     264.76        -17.673        -617.78    
      74     -3.83238E-02   -0.27006        3.26560E-02     626.34        -80.191        -370.76    
      75      4.48761E-02   -0.55191        2.32039E-02     1381.3         163.42        -1108.0    
      76     -0.19103       -2.27776E-02    2.22523E-02     181.04        -505.60         3.1530    
      77     -0.15185        0.10263        5.21376E-02    -23.378        -398.85         297.09    
      78      0.40517       -2.87433E-02   -3.20853E-02     127.64         1014.6        -123.98    
      79     -0.10083       -0.22102        2.97994E-02     552.55         329.14        -436.27    
      80     -0.39495        0.55026        5.71390E-02    -1405.4        -604.07         1053.6    
      81      0.12311        0.25078        4.62775E-03    -682.98         555.27         485.15    
      82      0.19358       -0.40421        2.04334E-02     950.90         1195.7        -776.22    
      83     -0.33639        0.90521        7.95868E-03    -2277.2        -768.68         1794.5    
      84      0.50485        4.44093E-02   -5.56688E-02    -104.13         1267.3         71.008    
      85     -1.01373E-02   -2.75243E-02    0.20318         157.48        -24.263        -49.232    
      86     -1.36565E-02   -3.36958E-02    2.76935E-02     234.72         45.026        -55.677    
      87      1.32773E-02    0.13139        0.20263        -40.761         306.18         374.07    
      88      1.34055E-02   -7.70348E-02    6.78072E-03     71.170         29.979        -223.62    
      89     -3.80273E-02    9.08841E-02    1.35555E-02    -98.898        -155.27         228.59    
      90      1.82045E-02   -3.64461E-02    2.64183E-03     38.547         44.953        -63.309    
      91      9.75348E-03    7.99011E-02    0.16687        -602.44        -474.28         92.665    
      92     -2.29239E-02   -0.16278        1.24877E-02     295.21        -162.19        -292.36    
      93      1.22092E-02    0.15107        8.22636E-04    -255.94         72.022         360.69    
      94      1.70436E-02   -3.01759E-02   -7.66521E-02     68.915         208.31         208.23    
      95      3.94494E-02   -0.11628        5.45687E-02     394.70        -14.981        -116.34    
      96     -1.08363E-02    5.54225E-02    3.74571E-02     333.53        -333.64         170.57    
      97     -2.20419E-02    4.09805E-02    2.39857E-02     7.1854        -145.73        -122.80    
      98      1.36533E-03   -2.26306E-02   -6.30314E-02     189.26        -46.605        -43.749    
      99     -3.46262E-03    2.36030E-02   -6.75857E-02    -99.468         93.543       -0.97458    
     100     -5.93111E-03   -3.90717E-02   -6.89932E-03     24.391         85.819        -62.580    


                    E F F E C T I V E   M A S S

 MODE NO    X-COMPONENT    Y-COMPONENT    Z-COMPONENT    X-ROTATION     Y-ROTATION     Z-ROTATION 

       1       16.048        6.93499E-05    2.44323E-04     7405.0        1.56178E+09     94509.    
       2      2.88110E-05     16.339        7.95050E-06    1.56490E+09     5701.6        4.67511E+05
       3       1.9257        1.65984E-03    3.22084E-06     2819.7        7.47313E+05    3.74317E+06
       4      0.45421        2.58555E-04    5.04626E-06     64609.        4.26685E+06    2.67028E+07
       5      2.34284E-02    1.14277E-04    4.71631E-06     1325.9        1.75331E+05     46353.    
       6      8.15606E-02    3.95179E-03    4.06945E-08     228.35        2.46209E+05     41365.    
       7      6.45157E-05    1.35148E-04    1.97869E-06     749.11        4.51954E+05     17307.    
       8      1.48435E-02    4.12310E-03    2.22521E-07     599.85         71242.        2.05629E+05
       9      1.95457E-03    4.89833E-03    8.45713E-07     2183.9         22242.        1.56125E+05
      10      3.58985E-04     2.1325        2.81978E-05    8.03112E+05     1.4312         23883.    
      11      1.49885E-05    6.11371E-03    2.58503E-08    8.15245E+05     385.81         658.36    
      12      7.16593E-07    3.64919E-04    3.28298E-08    7.38262E+05     353.96         437.48    
      13      1.90514E-03    3.61496E-03    4.42452E-06    2.61786E+05     586.92        1.83101E+07
      14      0.23342        6.69496E-03    1.99177E-04    4.25790E+05    2.47178E+07     5133.2    
      15      1.46598E-03    0.24261        6.35907E-07    6.85456E+06     72631.        1.03941E+05
      16      2.90346E-04    7.12522E-02    4.16892E-05    1.45247E+07     86886.        1.66156E+06
      17      4.14618E-05    1.08689E-03    1.24204E-05    2.49352E+06     10631.        4.83784E+05
      18      8.47352E-06    9.01407E-05    2.50117E-07    1.36176E+05     476.04         13506.    
      19      0.11595        3.14581E-02    2.01873E-05    1.08891E+05     532.39        1.77719E+05
      20      1.49345E-02    7.89335E-02    4.23148E-05    1.17432E+06    3.67147E+05    6.84291E+05
      21      6.60040E-03    7.96235E-06    4.44688E-06     30764.         56469.         3269.5    
      22      9.46592E-04    0.12919        5.98343E-06     39692.         4023.2        2.69578E+05
      23      5.63825E-04    8.22573E-03    6.68676E-06     20542.         58544.         5754.6    
      24      4.66405E-04    3.47168E-04    3.97314E-07     57649.         10300.         242.56    
      25      1.88810E-04    3.39913E-04    2.44178E-06     43916.         52926.         278.51    
      26      0.15787        9.12886E-03    7.37459E-05    9.38462E+05    7.27905E+06     3409.5    
      27      4.92953E-03    0.13750        3.70495E-05    5.60952E+06    3.45766E+05     17075.    
      28      5.21735E-03    3.83320E-02    3.11062E-04    1.52806E+06     31365.        9.20377E+05
      29      1.42598E-03    4.04967E-02    1.65363E-04    1.52874E+06     3493.5        2.04161E+05
      30      7.71736E-05    8.71561E-03    3.57716E-05     89079.         1946.6         2436.8    
      31      0.48927        2.84287E-04    1.88394E-04     19374.        9.44812E+05    2.98663E+05
      32      6.97519E-03    0.14896        1.17109E-03    5.79634E+05    3.77778E+05    1.32689E+06
      33      0.45879        3.83975E-03    7.35903E-06     8182.3        1.73847E+06    2.14831E+05
      34      4.80300E-03    8.10127E-05    1.20709E-05     368.17         45621.         2412.2    
      35      2.61529E-03    0.38685        4.97267E-04    1.05640E+06    1.54400E+05     9503.1    
      36      5.38424E-04    0.15459        4.99251E-04    5.23220E+05     1205.5        1.15683E+05
      37      8.23596E-08    3.51756E-04    4.43974E-08    1.03682E+05     229.78         2352.1    
      38      3.12956E-05    1.33902E-04    6.24544E-04     19390.        1.00060E+06     27086.    
      39      5.38270E-07    7.99211E-03    6.27759E-03    2.58002E+06     1426.4         3361.2    
      40      1.97012E-03    1.24547E-02    3.55039E-04     2597.0         13183.        1.67517E+05
      41      2.07460E-04    1.73966E-03    1.51999E-06     1665.8         2587.0         13932.    
      42      2.87917E-03    1.22232E-02    2.22835E-04     81266.         181.68        1.89717E+05
      43      5.69628E-04    5.00910E-05    7.25274E-06     6320.6         748.50         3967.2    
      44      8.75676E-04    0.10004        3.02904E-04     22682.         6258.3        1.29229E+06
      45      4.38589E-03    1.19116E-03    3.00590E-04     818.05         1134.5        1.77645E+05
      46      3.63180E-03    9.40338E-05    1.10232E-05     778.37         1454.5         3016.2    
      47      0.14692        8.61507E-04    2.36975E-04     5643.6        1.15205E+05     28298.    
      48      0.23512        4.16720E-02    5.00576E-06     3882.9        1.84775E+05     58137.    
      49      6.66469E-02    0.17896        9.80925E-03     43912.         40452.        1.58966E+05
      50      1.90413E-04    5.71409E-02    2.56113E-02    1.39819E+05     209.58        1.29308E+06
      51      8.99498E-05    2.54736E-02    1.55424E-02     48710.         12796.         67946.    
      52      1.63282E-05    2.99025E-07    2.34790E-04     26509.         3815.9         8724.1    
      53      7.31312E-05    4.47593E-02    2.30217E-02    1.81857E+05     17831.         6061.7    
      54      6.15922E-04    2.23024E-02    0.10666        2.17686E+05     12588.        8.94973E+05
      55      7.17166E-06    1.42579E-03     10.818         21347.         4026.7         19490.    
      56      1.44317E-05    6.45243E-06    2.93162E-02    4.25803E+06     1028.0         364.97    
      57      3.92744E-05    2.61298E-02    2.44878E-05    3.31315E+05     153.88        1.45343E+05
      58      1.32060E-05    1.04292E-03    1.36140E-05     9402.2         71.531         9738.9    
      59      2.54535E-04    6.96661E-05    9.38549E-08    1.37032E+05     1617.5         1556.8    
      60      3.06785E-04    1.18450E-03    1.15182E-04     32906.         9640.3         81691.    
      61      5.41027E-05    1.54456E-02    1.65848E-06    1.16466E+05     252.95         41118.    
      62      3.52073E-07    8.41603E-04    7.07265E-04     4937.2         36.009         3146.6    
      63      7.27040E-05    4.88918E-03    1.00305E-02     27635.         2284.8         20349.    
      64      2.12310E-05    1.47477E-03    1.92945E-02     4761.7         860.71         9108.4    
      65      1.44265E-05    5.51277E-02    1.42213E-03    3.62244E+05     140.04        1.58740E+05
      66      9.31716E-05    1.62987E-03    1.61796E-04     5443.8         732.59         10396.    
      67      1.79623E-06    1.95951E-03    1.50251E-05     2508.0        0.15089         8713.1    
      68      1.31882E-05    1.66840E-04    3.88478E-02     2130.3         12.881         1864.2    
      69      1.79398E-03    2.49576E-03    2.15330E-04     26653.         10215.         11506.    
      70      5.18708E-04    3.05983E-03    2.13814E-05     31396.         3225.5         8113.7    
      71      8.01641E-05    4.85852E-03    3.50916E-03     42350.         4053.6         13829.    
      72      1.25410E-04    6.87993E-05    1.23246E-02     58078.         11836.        0.29978    
      73      3.39235E-04    1.23044E-02    1.79266E-04     8797.2         39.197         47895.    
      74      3.61076E-04    1.79294E-02    2.62172E-04     96446.         1580.9         33795.    
      75      1.97205E-04    2.98280E-02    5.27241E-05    1.86842E+05     2615.0        1.20208E+05
      76      2.43527E-03    3.46229E-05    3.30443E-05     2187.1         17059.        0.66341    
      77      1.86695E-03    8.52747E-04    2.20090E-04     44.249         12880.         7146.3    
      78      6.68280E-03    3.36320E-05    4.19076E-05     663.23         41902.         625.69    
      79      1.93238E-04    9.28394E-04    1.68767E-05     5802.5         2058.9         3617.3    
      80      3.71258E-03    7.20663E-03    7.77081E-05     47013.         8685.0         26423.    
      81      3.37732E-04    1.40135E-03    4.77214E-07     10394.         6870.4         5244.7    
      82      1.14292E-03    4.98322E-03    1.27341E-05     27578.         43603.         18376.    
      83      8.84371E-03    6.40371E-02    4.95015E-06    4.05260E+05     46177.        2.51662E+05
      84      0.34403        2.66212E-03    4.18314E-03     14635.        2.16801E+06     6806.0    
      85      2.95381E-05    2.17757E-04    1.18656E-02     7128.8         169.21         696.69    
      86      1.00039E-04    6.09032E-04    4.11380E-04     29553.         1087.5         1662.8    
      87      3.03534E-05    2.97227E-03    7.06950E-03     286.07         16141.         24094.    
      88      2.03285E-05    6.71291E-04    5.20103E-06     572.96         101.67         5656.6    
      89      1.65032E-04    9.42656E-04    2.09704E-05     1116.2         2751.4         5963.4    
      90      1.19034E-04    4.77104E-04    2.50681E-06     533.71         725.82         1439.6    
      91      7.88314E-06    5.29036E-04    2.30755E-03     30076.         18640.         711.56    
      92      1.37365E-04    6.92668E-03    4.07634E-05     22781.         6876.0         22343.    
      93      5.32081E-05    8.14639E-03    2.41555E-07     23381.         1851.5         46439.    
      94      1.69315E-05    5.30753E-05    3.42467E-04     276.82         2529.2         2527.2    
      95      1.28582E-04    1.11713E-03    2.46029E-04     12872.         18.543         1118.3    
      96      2.44988E-05    6.40851E-04    2.92720E-04     23209.         23225.         6070.0    
      97      3.43539E-05    1.18749E-04    4.06803E-05     3.6507         1501.6         1066.3    
      98      8.79271E-07    2.41570E-04    1.87398E-03     16895.         1024.5         902.81    
      99      5.14945E-06    2.39269E-04    1.96183E-03     4249.3         3758.2        0.40793    
     100      1.78841E-05    7.76107E-04    2.41996E-05     302.45         3744.3         1991.0    

 TOTAL         20.898         20.792         11.158        1.61533E+09    1.60803E+09    6.19210E+07
1

   Abaqus 3DEXPERIENCE R2016x                                  Date 20-Jun-2016   Time 15:13:23
   For use by ABB AB CORPORATE RESEARCH _ABB AB_ under license from Dassault Systemes or its subsidiary.

                                                                                               STEP    3  INCREMENT    1
                                                                                          TIME COMPLETED IN THIS STEP   0.00    


                        S T E P       3     R E S P O N S E   S P E C T R U M


                                                                                          


                        MODES ARE ADDED ACCORDING TO    CQC 
                        COMPONENTS ADDED ACCORDING TO   SRSS     

     NAME OF SPECTRUM         IEC_0_2G                                                                        
     DIRECTION OF EXCITATION    1.00      0.00      0.00    
     SCALE FACTOR              9.810E+03

     NAME OF SPECTRUM         IEC_0_2G                                                                        
     DIRECTION OF EXCITATION    0.00      0.00     0.800    
     SCALE FACTOR              9.810E+03

     THIS IS A LINEAR PERTURBATION STEP.
     ALL LOADS ARE DEFINED AS CHANGE IN LOAD TO THE REFERENCE STATE

          LARGE DISPLACEMENT THEORY WILL BE USED
  
                   M E M O R Y   E S T I M A T E
  
 PROCESS      FLOATING PT       MINIMUM MEMORY        MEMORY TO
              OPERATIONS           REQUIRED          MINIMIZE I/O
             PER ITERATION           (MB)               (MB)
  
     1         0.00E+000              111               1460
  
 NOTE:
      (1) SINCE ABAQUS DOES NOT PRE-ALLOCATE MEMORY AND ONLY ALLOCATES MEMORY AS NEEDED DURING THE ANALYSIS,
          THE MEMORY REQUIREMENT PRINTED HERE CAN ONLY BE VIEWED AS A GENERAL GUIDELINE BASED ON THE BEST
          KNOWLEDGE AVAILABLE AT THE BEGINNING OF A STEP BEFORE THE SOLUTION PROCESS HAS BEGUN.
      (2) THE ESTIMATE IS NORMALLY UPDATED AT THE BEGINNING OF EVERY STEP. IT IS THE MAXIMUM VALUE OF THE
          ESTIMATE FROM THE CURRENT STEP TO THE LAST STEP OF THE ANALYSIS, WITH UNSYMMETRIC SOLUTION TAKEN
          INTO ACCOUNT IF APPLICABLE. 
      (3) SINCE THE ESTIMATE IS BASED ON THE ACTIVE DEGREES OF FREEDOM IN THE FIRST ITERATION OF THE 
          CURRENT STEP, THE MEMORY ESTIMATE MIGHT BE SIGNIFICANTLY DIFFERENT THAN ACTUAL USAGE FOR 
          PROBLEMS WITH SUBSTANTIAL CHANGES IN ACTIVE DEGREES OF FREEDOM BETWEEN STEPS (OR EVEN WITHIN
          THE SAME STEP). EXAMPLES ARE: PROBLEMS WITH SIGNIFICANT CONTACT CHANGES, PROBLEMS WITH MODEL
          CHANGE, PROBLEMS WITH BOTH STATIC STEP AND STEADY STATE DYNAMIC PROCEDURES WHERE ACOUSTIC 
          ELEMENTS WILL ONLY BE ACTIVATED IN THE STEADY STATE DYNAMIC STEPS.
      (4) FOR MULTI-PROCESS EXECUTION, THE ESTIMATED VALUE OF FLOATING POINT OPERATIONS FOR EACH PROCESS
          IS BASED ON AN INITIAL SCHEDULING OF OPERATIONS AND MIGHT NOT REFLECT THE ACTUAL FLOATING 
          POINT OPERATIONS COMPLETED ON EACH PROCESS. OPERATIONS ARE DYNAMICALLY BALANCED DURING EXECUTION, 
          SO THE ACTUAL BALANCE OF OPERATIONS BETWEEN PROCESSES IS EXPECTED TO BE BETTER THAN THE ESTIMATE
          PRINTED HERE.
      (5) THE UPPER LIMIT OF MEMORY THAT CAN BE ALLOCATED BY ABAQUS WILL IN GENERAL DEPEND ON THE VALUE OF
          THE "MEMORY" PARAMETER AND THE AMOUNT OF PHYSICAL MEMORY AVAILABLE ON THE MACHINE. PLEASE SEE
          THE "ABAQUS ANALYSIS USER'S MANUAL" FOR MORE DETAILS. THE ACTUAL USAGE OF MEMORY AND OF DISK
          SPACE FOR SCRATCH DATA WILL DEPEND ON THIS UPPER LIMIT AS WELL AS THE MEMORY REQUIRED TO MINIMIZE
          I/O. IF THE MEMORY UPPER LIMIT IS GREATER THAN THE MEMORY REQUIRED TO MINIMIZE I/O, THEN THE ACTUAL
          MEMORY USAGE WILL BE CLOSE TO THE ESTIMATED "MEMORY TO MINIMIZE I/O" VALUE, AND THE SCRATCH DISK
          USAGE WILL BE CLOSE-TO-ZERO; OTHERWISE, THE ACTUAL MEMORY USED WILL BE CLOSE TO THE PREVIOUSLY
          MENTIONED MEMORY LIMIT, AND THE SCRATCH DISK USAGE WILL BE ROUGHLY PROPORTIONAL TO THE DIFFERENCE
          BETWEEN THE ESTIMATED "MEMORY TO MINIMIZE I/O" AND THE MEMORY UPPER LIMIT. HOWEVER ACCURATE
          ESTIMATE OF THE SCRATCH DISK SPACE IS NOT POSSIBLE.
      (6) USING "*RESTART, WRITE" CAN GENERATE A LARGE AMOUNT OF DATA WRITTEN IN THE WORK DIRECTORY.


          THE ANALYSIS HAS BEEN COMPLETED



                              ANALYSIS COMPLETE
                              WITH    688 WARNING MESSAGES ON THE DAT FILE



     JOB TIME SUMMARY
       USER TIME (SEC)      =   727.40    
       SYSTEM TIME (SEC)    =   52.400    
       TOTAL CPU TIME (SEC) =   779.80    
       WALLCLOCK TIME (SEC) =       1626
